[Format]      =  4.0
[Frequency]   =  0
[Precision]   =  1e-008
[MinAngle]    =  30
[DoSmartMesh] =  1
[Depth]       =  120
[LengthUnits] =  millimeters
[ProblemType] =  planar
[Coordinates] =  cartesian
[ACSolver]    =  0
[PrevType]    =  0
[PrevSoln]    =  ""
[Comment]     =  "Add comments here."
[PointProps]   = 0
[BdryProps]   = 1
  <BeginBdry>
    <BdryName> = "Zero"
    <BdryType> = 0
    <A_0> = 0
    <A_1> = 0
    <A_2> = 0
    <Phi> = 0
    <c0> = 0
    <c0i> = 0
    <c1> = 0
    <c1i> = 0
    <Mu_ssd> = 0
    <Sigma_ssd> = 0
    <innerangle> = 0
    <outerangle> = 0
  <EndBdry>
[BlockProps]  = 3
  <BeginBlock>
    <BlockName> = "Air"
    <Mu_x> = 1
    <Mu_y> = 1
    <H_c> = 0
    <H_cAngle> = 0
    <J_re> = 0
    <J_im> = 0
    <Sigma> = 0
    <d_lam> = 0
    <Phi_h> = 0
    <Phi_hx> = 0
    <Phi_hy> = 0
    <LamType> = 0
    <LamFill> = 1
    <NStrands> = 0
    <WireD> = 0
    <BHPoints> = 0
  <EndBlock>
  <BeginBlock>
    <BlockName> = "M-15 Steel"
    <Mu_x> = 1
    <Mu_y> = 1
    <H_c> = 0
    <H_cAngle> = 0
    <J_re> = 0
    <J_im> = 0
    <Sigma> = 1.8999999999999999
    <d_lam> = 0.63500000000000001
    <Phi_h> = 0
    <Phi_hx> = 0
    <Phi_hy> = 0
    <LamType> = 0
    <LamFill> = 0.97999999999999998
    <NStrands> = 0
    <WireD> = 0
    <BHPoints> = 47
      0	0
      0.050000000000000003	15.120714
      0.10000000000000001	22.718292000000002
      0.14999999999999999	27.842732999999999
      0.20000000000000001	31.871434000000001
      0.25	35.365043999999997
      0.29999999999999999	38.600588000000002
      0.34999999999999998	41.736201999999999
      0.40000000000000002	44.873978999999999
      0.45000000000000001	48.087806999999998
      0.5	51.437235999999999
      0.55000000000000004	54.975220999999998
      0.59999999999999998	58.752992999999996
      0.65000000000000002	62.823644000000002
      0.69999999999999996	67.245284999999996
      0.75	72.084406000000001
      0.80000000000000004	77.420100000000005
      0.84999999999999998	83.350020999999998
      0.90000000000000002	89.999611999999999
      0.94999999999999996	97.537352999999996
      1	106.20140600000001
      1.05	116.34846400000001
      1.1000000000000001	128.54732899999999
      1.1499999999999999	143.76543100000001
      1.2	163.75416899999999
      1.25	191.86815799999999
      1.3	234.833507
      1.3500000000000001	306.50976900000001
      1.3999999999999999	435.255202
      1.45	674.911968
      1.5	1108.3255690000001
      1.55	1813.085468
      1.6000000000000001	2801.2174209999998
      1.6499999999999999	4053.6531169999998
      1.7	5591.10689
      1.75	7448.318413
      1.8	9708.81567
      1.8500000000000001	12486.931615
      1.8999999999999999	16041.483644
      1.95	21249.420623999998
      2	31313.495878000002
      2.0499999999999998	53589.446877000002
      2.1000000000000001	88477.484601000004
      2.1499999999999999	124329.41054
      2.2000000000000002	159968.5693
      2.25	197751.604272
      2.2999999999999998	234024.75134700001
  <EndBlock>
  <BeginBlock>
    <BlockName> = "Slot"
    <Mu_x> = 1
    <Mu_y> = 1
    <H_c> = 0
    <H_cAngle> = 0
    <J_re> = 0
    <J_im> = 0
    <Sigma> = 0
    <d_lam> = 0
    <Phi_h> = 0
    <Phi_hx> = 0
    <Phi_hy> = 0
    <LamType> = 0
    <LamFill> = 1
    <NStrands> = 0
    <WireD> = 0
    <BHPoints> = 0
  <EndBlock>
[CircuitProps]  = 3
  <BeginCircuit>
    <CircuitName> = "R"
    <TotalAmps_re> = 100
    <TotalAmps_im> = 0
    <CircuitType> = 1
  <EndCircuit>
  <BeginCircuit>
    <CircuitName> = "Y"
    <TotalAmps_re> = -49.999999999999972
    <TotalAmps_im> = -0
    <CircuitType> = 1
  <EndCircuit>
  <BeginCircuit>
    <CircuitName> = "B"
    <TotalAmps_re> = -50.000000000000043
    <TotalAmps_im> = -0
    <CircuitType> = 1
  <EndCircuit>
[NumPoints] = 30
0	80	0	0
0	-80	0	0
0	50	0	0
0	-50	0	0
0	47	0	0
0	-47	0	0
-3.9872611141445002	49.840763926806247	0	0
-3.9905213136919326	57.862559048533015	0	0
3.9905213136919326	57.862559048533015	0	0
3.9872611141445002	49.840763926806247	0	0
41.169737147565009	28.37345137977411	0	0
48.115185407160759	32.38717235626698	0	0
52.105706720852695	25.475386692266053	0	0
45.156998261709511	21.467312547032151	0	0
45.156998261709525	-21.467312547032133	0	0
52.105706720852709	-25.475386692266024	0	0
48.115185407160766	-32.387172356266973	0	0
41.169737147565023	-28.373451379774096	0	0
3.987261114144506	-49.840763926806247	0	0
3.9905213136919269	-57.862559048533015	0	0
-3.9905213136919122	-57.862559048533022	0	0
-3.987261114144494	-49.840763926806254	0	0
-41.169737147565009	-28.373451379774124	0	0
-48.115185407160759	-32.387172356266987	0	0
-52.10570672085268	-25.475386692266081	0	0
-45.156998261709511	-21.467312547032165	0	0
-45.156998261709511	21.467312547032147	0	0
-52.105706720852687	25.47538669226606	0	0
-48.115185407160766	32.387172356266966	0	0
-41.169737147565016	28.37345137977411	0	0
[NumSegments] = 18
6	7	-1	0	0	0
7	8	-1	0	0	0
8	9	-1	0	0	0
10	11	-1	0	0	0
11	12	-1	0	0	0
12	13	-1	0	0	0
14	15	-1	0	0	0
15	16	-1	0	0	0
16	17	-1	0	0	0
18	19	-1	0	0	0
19	20	-1	0	0	0
20	21	-1	0	0	0
22	23	-1	0	0	0
23	24	-1	0	0	0
24	25	-1	0	0	0
26	27	-1	0	0	0
27	28	-1	0	0	0
28	29	-1	0	0	0
[NumArcSegments] = 18
0	1	180	1	1	0	0	1
1	0	180	1	1	0	0	1
2	6	4.5739212599008621	1	0	0	0	1
3	18	4.5739212599008701	1	0	0	0	1
4	5	180	1	0	0	0	1
5	4	180	1	0	0	0	1
6	29	50.852157480198265	1	0	0	0	1
9	2	4.5739212599008621	1	0	0	0	1
10	9	50.852157480198265	1	0	0	0	1
13	10	9.1478425198017188	1	0	0	0	1
14	13	50.852157480198279	1	0	0	0	1
17	14	9.1478425198017277	1	0	0	0	1
18	17	50.852157480198308	1	0	0	0	1
21	3	4.5739212599008541	1	0	0	0	1
22	21	50.852157480198244	1	0	0	0	1
25	22	9.1478425198017188	1	0	0	0	1
26	25	50.852157480198279	1	0	0	0	1
29	26	9.1478425198017153	1	0	0	0	1
[NumHoles] = 0
[NumBlockLabels] = 9
0	0	2	-1	0	0	0	1	0
48.790367901871775	48.790367901871775	2	-1	0	0	0	1	0
34.294678887547555	34.294678887547555	1	-1	0	0	0	1	0
1.1102230246251565e-016	53.851661487669631	3	-1	1	0	2	20	0
46.636906884321995	26.925830743834823	3	-1	2	0	2	-20	0
46.636906884322009	-26.925830743834805	3	-1	3	0	2	20	0
6.5503158452884236e-015	-53.851661487669638	3	-1	1	0	2	-20	0
-46.636906884321988	-26.92583074383484	3	-1	2	0	2	20	0
-46.636906884321988	26.925830743834823	3	-1	3	0	2	-20	0
