[Format]      =  4.0
[Frequency]   =  0
[Precision]   =  1e-008
[MinAngle]    =  30
[DoSmartMesh] =  1
[Depth]       =  120
[LengthUnits] =  millimeters
[ProblemType] =  planar
[Coordinates] =  cartesian
[ACSolver]    =  0
[PrevType]    =  0
[PrevSoln]    =  ""
[Comment]     =  "Add comments here."
[PointProps]   = 0
[BdryProps]   = 3
  <BeginBdry>
    <BdryName> = "Zero"
    <BdryType> = 0
    <A_0> = 0
    <A_1> = 0
    <A_2> = 0
    <Phi> = 0
    <c0> = 0
    <c0i> = 0
    <c1> = 0
    <c1i> = 0
    <Mu_ssd> = 0
    <Sigma_ssd> = 0
    <innerangle> = 0
    <outerangle> = 0
  <EndBdry>
  <BeginBdry>
    <BdryName> = "SA"
    <BdryType> = 4
    <A_0> = 0
    <A_1> = 0
    <A_2> = 0
    <Phi> = 0
    <c0> = 0
    <c0i> = 0
    <c1> = 0
    <c1i> = 0
    <Mu_ssd> = 0
    <Sigma_ssd> = 0
    <innerangle> = 0
    <outerangle> = 0
  <EndBdry>
  <BeginBdry>
    <BdryName> = "SB"
    <BdryType> = 4
    <A_0> = 0
    <A_1> = 0
    <A_2> = 0
    <Phi> = 0
    <c0> = 0
    <c0i> = 0
    <c1> = 0
    <c1i> = 0
    <Mu_ssd> = 0
    <Sigma_ssd> = 0
    <innerangle> = 0
    <outerangle> = 0
  <EndBdry>
[BlockProps]  = 3
  <BeginBlock>
    <BlockName> = "Air"
    <Mu_x> = 1
    <Mu_y> = 1
    <H_c> = 0
    <H_cAngle> = 0
    <J_re> = 0
    <J_im> = 0
    <Sigma> = 0
    <d_lam> = 0
    <Phi_h> = 0
    <Phi_hx> = 0
    <Phi_hy> = 0
    <LamType> = 0
    <LamFill> = 1
    <NStrands> = 0
    <WireD> = 0
    <BHPoints> = 0
  <EndBlock>
  <BeginBlock>
    <BlockName> = "M-15 Steel"
    <Mu_x> = 1
    <Mu_y> = 1
    <H_c> = 0
    <H_cAngle> = 0
    <J_re> = 0
    <J_im> = 0
    <Sigma> = 1.8999999999999999
    <d_lam> = 0.63500000000000001
    <Phi_h> = 0
    <Phi_hx> = 0
    <Phi_hy> = 0
    <LamType> = 0
    <LamFill> = 0.97999999999999998
    <NStrands> = 0
    <WireD> = 0
    <BHPoints> = 47
      0	0
      0.050000000000000003	15.120714
      0.10000000000000001	22.718292000000002
      0.14999999999999999	27.842732999999999
      0.20000000000000001	31.871434000000001
      0.25	35.365043999999997
      0.29999999999999999	38.600588000000002
      0.34999999999999998	41.736201999999999
      0.40000000000000002	44.873978999999999
      0.45000000000000001	48.087806999999998
      0.5	51.437235999999999
      0.55000000000000004	54.975220999999998
      0.59999999999999998	58.752992999999996
      0.65000000000000002	62.823644000000002
      0.69999999999999996	67.245284999999996
      0.75	72.084406000000001
      0.80000000000000004	77.420100000000005
      0.84999999999999998	83.350020999999998
      0.90000000000000002	89.999611999999999
      0.94999999999999996	97.537352999999996
      1	106.20140600000001
      1.05	116.34846400000001
      1.1000000000000001	128.54732899999999
      1.1499999999999999	143.76543100000001
      1.2	163.75416899999999
      1.25	191.86815799999999
      1.3	234.833507
      1.3500000000000001	306.50976900000001
      1.3999999999999999	435.255202
      1.45	674.911968
      1.5	1108.3255690000001
      1.55	1813.085468
      1.6000000000000001	2801.2174209999998
      1.6499999999999999	4053.6531169999998
      1.7	5591.10689
      1.75	7448.318413
      1.8	9708.81567
      1.8500000000000001	12486.931615
      1.8999999999999999	16041.483644
      1.95	21249.420623999998
      2	31313.495878000002
      2.0499999999999998	53589.446877000002
      2.1000000000000001	88477.484601000004
      2.1499999999999999	124329.41054
      2.2000000000000002	159968.5693
      2.25	197751.604272
      2.2999999999999998	234024.75134700001
  <EndBlock>
  <BeginBlock>
    <BlockName> = "Coil"
    <Mu_x> = 1
    <Mu_y> = 1
    <H_c> = 0
    <H_cAngle> = 0
    <J_re> = 0
    <J_im> = 0
    <Sigma> = 0
    <d_lam> = 0
    <Phi_h> = 0
    <Phi_hx> = 0
    <Phi_hy> = 0
    <LamType> = 0
    <LamFill> = 1
    <NStrands> = 0
    <WireD> = 0
    <BHPoints> = 0
  <EndBlock>
[CircuitProps]  = 3
  <BeginCircuit>
    <CircuitName> = "R"
    <TotalAmps_re> = 80
    <TotalAmps_im> = 0
    <CircuitType> = 1
  <EndCircuit>
  <BeginCircuit>
    <CircuitName> = "Y"
    <TotalAmps_re> = -40
    <TotalAmps_im> = 0
    <CircuitType> = 1
  <EndCircuit>
  <BeginCircuit>
    <CircuitName> = "B"
    <TotalAmps_re> = -40
    <TotalAmps_im> = 0
    <CircuitType> = 1
  <EndCircuit>
[NumPoints] = 96
-40.703193977868615	23.500000000000004	0	0
-43.301270189221931	25.000000000000007	0	0
-69.282032302755084	40.000000000000007	0	0
69.282032302755084	40.000000000000007	0	0
43.301270189221931	25.000000000000007	0	0
40.703193977868615	23.500000000000004	0	0
-42.090618889957767	26.988512398061705	0	0
-50.483123680790456	31.834795796895172	0	0
-57.690895413155907	35.99667465792232	0	0
-54.986925362755002	40.00547511467412	0	0
-48.428019663366896	34.881612799361058	0	0
-40.790736311392898	28.915667572691671	0	0
-37.924920919558517	32.583744002880223	0	0
-45.56127814193384	38.550874621379755	0	0
-52.11968274836417	43.675378306431078	0	0
-48.884110357922346	47.268845495891576	0	0
-43.102139285245748	41.282025011320314	0	0
-36.369480547207786	34.311235546483523	0	0
-33.021057502418216	37.544770094142137	0	0
-39.752634149230232	44.516604522329139	0	0
-45.534019744135932	50.503990396211655	0	0
-41.829821749824099	53.612181567046335	0	0
-36.937324793894035	46.878929564041677	0	0
-31.240334213842218	39.038974348815046	0	0
-27.474476761889537	41.77502994206457	0	0
-33.170250350762991	49.615869353138493	0	0
-38.062088839767888	56.349599760367575	0	0
-33.961363242082541	58.912017506951202	0	0
-30.053567291013405	51.563389076790997	0	0
-25.503130310357697	43.006863921622028	0	0
-21.393136582944798	45.192186350556987	0	0
-25.942245359818713	53.749417724203909	0	0
-29.849322671118106	61.09842826190765	0	0
-25.431885429311979	63.065198037509951	0	0
-22.584851286239303	55.244225873646336	0	0
-19.269536984762826	46.137673807777283	0	0
-14.895403334745222	47.729728257085867	0	0
-18.209304071812277	56.836794818324165	0	0
-21.055573389776306	64.658045355761757	0	0
-16.407404895000759	65.990886223868102	0	0
-14.676546841066124	57.849796653246692	0	0
-12.660884040532991	48.370466354090254	0	0
-8.1077480039049945	49.338265294851766	0	0
-10.121939392824402	58.817908352201627	0	0
-11.852001322762261	66.959167144202453	0	0
-7.0635728875548018	67.632136873399176	0	0
-6.4825801059561856	59.329386944159985	0	0
-5.8058013899963239	49.661782793410836	0	0
-1.1622845805954234	49.986489120098341	0	0
-1.8375626770906099	59.654198204382595	0	0
-2.4177435314523366	67.957004909104995	0	0
2.4177435314523366	67.957004909104995	0	0
1.8375626770906099	59.654198204382595	0	0
1.1622845805954234	49.986489120098341	0	0
5.8058013899963239	49.661782793410836	0	0
6.4825801059561856	59.329386944159985	0	0
7.0635728875548018	67.632136873399176	0	0
11.852001322762261	66.959167144202453	0	0
10.121939392824402	58.817908352201627	0	0
8.1077480039049945	49.338265294851766	0	0
12.660884040532991	48.370466354090254	0	0
14.676546841066124	57.849796653246692	0	0
16.407404895000759	65.990886223868102	0	0
21.055573389776306	64.658045355761757	0	0
18.209304071812277	56.836794818324165	0	0
14.895403334745222	47.729728257085867	0	0
19.269536984762826	46.137673807777283	0	0
22.584851286239303	55.244225873646336	0	0
25.431885429311979	63.065198037509951	0	0
29.849322671118106	61.09842826190765	0	0
25.942245359818713	53.749417724203909	0	0
21.393136582944798	45.192186350556987	0	0
25.503130310357697	43.006863921622028	0	0
30.053567291013405	51.563389076790997	0	0
33.961363242082541	58.912017506951202	0	0
38.062088839767888	56.349599760367575	0	0
33.170250350762991	49.615869353138493	0	0
27.474476761889537	41.77502994206457	0	0
31.240334213842218	39.038974348815046	0	0
36.937324793894035	46.878929564041677	0	0
41.829821749824099	53.612181567046335	0	0
45.534019744135932	50.503990396211655	0	0
39.752634149230232	44.516604522329139	0	0
33.021057502418216	37.544770094142137	0	0
36.369480547207786	34.311235546483523	0	0
43.102139285245748	41.282025011320314	0	0
48.884110357922346	47.268845495891576	0	0
52.11968274836417	43.675378306431078	0	0
45.56127814193384	38.550874621379755	0	0
37.924920919558517	32.583744002880223	0	0
40.790736311392898	28.915667572691671	0	0
48.428019663366896	34.881612799361058	0	0
54.986925362755002	40.00547511467412	0	0
57.690895413155907	35.99667465792232	0	0
50.483123680790456	31.834795796895172	0	0
42.090618889957767	26.988512398061705	0	0
[NumSegments] = 94
0	1	-1	3	0	0
1	2	-1	2	0	0
3	4	-1	2	0	0
4	5	-1	3	0	0
6	7	-1	0	0	0
7	8	-1	0	0	0
8	9	-1	0	0	0
9	10	-1	0	0	0
10	11	-1	0	0	0
7	10	-1	0	0	0
12	13	-1	0	0	0
13	14	-1	0	0	0
14	15	-1	0	0	0
15	16	-1	0	0	0
16	17	-1	0	0	0
13	16	-1	0	0	0
18	19	-1	0	0	0
19	20	-1	0	0	0
20	21	-1	0	0	0
21	22	-1	0	0	0
22	23	-1	0	0	0
19	22	-1	0	0	0
24	25	-1	0	0	0
25	26	-1	0	0	0
26	27	-1	0	0	0
27	28	-1	0	0	0
28	29	-1	0	0	0
25	28	-1	0	0	0
30	31	-1	0	0	0
31	32	-1	0	0	0
32	33	-1	0	0	0
33	34	-1	0	0	0
34	35	-1	0	0	0
31	34	-1	0	0	0
36	37	-1	0	0	0
37	38	-1	0	0	0
38	39	-1	0	0	0
39	40	-1	0	0	0
40	41	-1	0	0	0
37	40	-1	0	0	0
42	43	-1	0	0	0
43	44	-1	0	0	0
44	45	-1	0	0	0
45	46	-1	0	0	0
46	47	-1	0	0	0
43	46	-1	0	0	0
48	49	-1	0	0	0
49	50	-1	0	0	0
50	51	-1	0	0	0
51	52	-1	0	0	0
52	53	-1	0	0	0
49	52	-1	0	0	0
54	55	-1	0	0	0
55	56	-1	0	0	0
56	57	-1	0	0	0
57	58	-1	0	0	0
58	59	-1	0	0	0
55	58	-1	0	0	0
60	61	-1	0	0	0
61	62	-1	0	0	0
62	63	-1	0	0	0
63	64	-1	0	0	0
64	65	-1	0	0	0
61	64	-1	0	0	0
66	67	-1	0	0	0
67	68	-1	0	0	0
68	69	-1	0	0	0
69	70	-1	0	0	0
70	71	-1	0	0	0
67	70	-1	0	0	0
72	73	-1	0	0	0
73	74	-1	0	0	0
74	75	-1	0	0	0
75	76	-1	0	0	0
76	77	-1	0	0	0
73	76	-1	0	0	0
78	79	-1	0	0	0
79	80	-1	0	0	0
80	81	-1	0	0	0
81	82	-1	0	0	0
82	83	-1	0	0	0
79	82	-1	0	0	0
84	85	-1	0	0	0
85	86	-1	0	0	0
86	87	-1	0	0	0
87	88	-1	0	0	0
88	89	-1	0	0	0
85	88	-1	0	0	0
90	91	-1	0	0	0
91	92	-1	0	0	0
92	93	-1	0	0	0
93	94	-1	0	0	0
94	95	-1	0	0	0
91	94	-1	0	0	0
[NumArcSegments] = 33
5	0	120	1	0	0	0	1
4	95	2.6679999999999953	1	0	0	0	1
3	2	120	1	1	0	0	1
6	1	2.6679999999999913	1	0	0	0	1
11	6	2.6639999999999988	1	0	0	0	1
12	11	5.3360000000000065	1	0	0	0	1
17	12	2.6639999999999922	1	0	0	0	1
18	17	5.3360000000000039	1	0	0	0	1
23	18	2.6640000000000055	1	0	0	0	1
24	23	5.3359999999999985	1	0	0	0	1
29	24	2.6640000000000055	1	0	0	0	1
30	29	5.3359999999999914	1	0	0	0	1
35	30	2.664000000000005	1	0	0	0	1
36	35	5.3360000000000003	1	0	0	0	1
41	36	2.6640000000000028	1	0	0	0	1
42	41	5.3359999999999994	1	0	0	0	1
47	42	2.6639999999999984	1	0	0	0	1
48	47	5.3359999999999985	1	0	0	0	1
53	48	2.6639999999999988	1	0	0	0	1
54	53	5.3359999999999976	1	0	0	0	1
59	54	2.6639999999999961	1	0	0	0	1
60	59	5.3359999999999985	1	0	0	0	1
65	60	2.664000000000005	1	0	0	0	1
66	65	5.335999999999995	1	0	0	0	1
71	66	2.6640000000000015	1	0	0	0	1
72	71	5.3359999999999941	1	0	0	0	1
77	72	2.6640000000000108	1	0	0	0	1
78	77	5.3359999999999896	1	0	0	0	1
83	78	2.6640000000000015	1	0	0	0	1
84	83	5.3360000000000039	1	0	0	0	1
89	84	2.6639999999999864	1	0	0	0	1
90	89	5.3360000000000118	1	0	0	0	1
95	90	2.6639999999999988	1	0	0	0	1
[NumHoles] = 0
[NumBlockLabels] = 32
0	74	2	-1	0	0	0	1	0
0	48.5	1	-1	0	0	0	1	0
-45.448124636377003	30.655147141752405	3	-1	0	0	1	1	0
-52.897241030017071	35.679639592213164	3	-1	0	0	2	1	0
-40.739454723486475	36.681969795515954	3	-1	0	0	3	1	0
-47.41680263336653	42.694280858755683	3	-1	0	0	4	1	0
-35.237837664846175	41.994819632331996	3	-1	0	0	5	1	0
-41.013450109271076	48.8779265124072	3	-1	0	0	6	1	0
-29.050356178505908	46.490288073404024	3	-1	0	0	7	1	0
-33.811817430906707	54.110218924312065	3	-1	0	0	8	1	0
-22.29744255344141	50.08087593904613	3	-1	0	0	9	1	0
-25.952076186622023	58.289317474316967	3	-1	0	0	10	1	0
-15.110534572039153	52.696696520686743	3	-1	0	0	11	1	0
-17.587207299413866	61.333880762800177	3	-1	0	0	12	1	0
-7.6295172231704758	54.286835846156052	3	-1	0	0	13	1	0
-8.8800234272744127	63.184649828490805	3	-1	0	0	14	1	0
0	54.820343662240461	3	-1	0	0	15	1	0
0	63.805601556743795	3	-1	0	0	16	1	0
7.6295172231704766	54.286835846156059	3	-1	0	0	17	1	0
8.8800234272744127	63.184649828490819	3	-1	0	0	18	1	0
15.110534572039153	52.696696520686743	3	-1	0	0	19	1	0
17.587207299413869	61.333880762800177	3	-1	0	0	20	1	0
22.297442553441414	50.08087593904613	3	-1	0	0	21	1	0
25.952076186622026	58.28931747431696	3	-1	0	0	22	1	0
29.050356178505904	46.490288073404024	3	-1	0	0	23	1	0
33.811817430906707	54.110218924312065	3	-1	0	0	24	1	0
35.237837664846175	41.994819632332003	3	-1	0	0	25	1	0
41.013450109271076	48.877926512407207	3	-1	0	0	26	1	0
40.739454723486475	36.681969795515954	3	-1	0	0	27	1	0
47.41680263336653	42.694280858755683	3	-1	0	0	28	1	0
45.44812463637701	30.655147141752398	3	-1	0	0	29	1	0
52.897241030017071	35.679639592213171	3	-1	0	0	30	1	0
