[Format]      =  4.0
[Frequency]   =  0
[Precision]   =  1e-008
[MinAngle]    =  30
[DoSmartMesh] =  1
[Depth]       =  120
[LengthUnits] =  millimeters
[ProblemType] =  planar
[Coordinates] =  cartesian
[ACSolver]    =  0
[PrevType]    =  0
[PrevSoln]    =  ""
[Comment]     =  "Add comments here."
[PointProps]   = 0
[BdryProps]   = 3
  <BeginBdry>
    <BdryName> = "Zero"
    <BdryType> = 0
    <A_0> = 0
    <A_1> = 0
    <A_2> = 0
    <Phi> = 0
    <c0> = 0
    <c0i> = 0
    <c1> = 0
    <c1i> = 0
    <Mu_ssd> = 0
    <Sigma_ssd> = 0
    <innerangle> = 0
    <outerangle> = 0
  <EndBdry>
  <BeginBdry>
    <BdryName> = "SA"
    <BdryType> = 4
    <A_0> = 0
    <A_1> = 0
    <A_2> = 0
    <Phi> = 0
    <c0> = 0
    <c0i> = 0
    <c1> = 0
    <c1i> = 0
    <Mu_ssd> = 0
    <Sigma_ssd> = 0
    <innerangle> = 0
    <outerangle> = 0
  <EndBdry>
  <BeginBdry>
    <BdryName> = "SB"
    <BdryType> = 4
    <A_0> = 0
    <A_1> = 0
    <A_2> = 0
    <Phi> = 0
    <c0> = 0
    <c0i> = 0
    <c1> = 0
    <c1i> = 0
    <Mu_ssd> = 0
    <Sigma_ssd> = 0
    <innerangle> = 0
    <outerangle> = 0
  <EndBdry>
[BlockProps]  = 3
  <BeginBlock>
    <BlockName> = "Air"
    <Mu_x> = 1
    <Mu_y> = 1
    <H_c> = 0
    <H_cAngle> = 0
    <J_re> = 0
    <J_im> = 0
    <Sigma> = 0
    <d_lam> = 0
    <Phi_h> = 0
    <Phi_hx> = 0
    <Phi_hy> = 0
    <LamType> = 0
    <LamFill> = 1
    <NStrands> = 0
    <WireD> = 0
    <BHPoints> = 0
  <EndBlock>
  <BeginBlock>
    <BlockName> = "M-15 Steel"
    <Mu_x> = 1
    <Mu_y> = 1
    <H_c> = 0
    <H_cAngle> = 0
    <J_re> = 0
    <J_im> = 0
    <Sigma> = 1.8999999999999999
    <d_lam> = 0.63500000000000001
    <Phi_h> = 0
    <Phi_hx> = 0
    <Phi_hy> = 0
    <LamType> = 0
    <LamFill> = 0.97999999999999998
    <NStrands> = 0
    <WireD> = 0
    <BHPoints> = 47
      0	0
      0.050000000000000003	15.120714
      0.10000000000000001	22.718292000000002
      0.14999999999999999	27.842732999999999
      0.20000000000000001	31.871434000000001
      0.25	35.365043999999997
      0.29999999999999999	38.600588000000002
      0.34999999999999998	41.736201999999999
      0.40000000000000002	44.873978999999999
      0.45000000000000001	48.087806999999998
      0.5	51.437235999999999
      0.55000000000000004	54.975220999999998
      0.59999999999999998	58.752992999999996
      0.65000000000000002	62.823644000000002
      0.69999999999999996	67.245284999999996
      0.75	72.084406000000001
      0.80000000000000004	77.420100000000005
      0.84999999999999998	83.350020999999998
      0.90000000000000002	89.999611999999999
      0.94999999999999996	97.537352999999996
      1	106.20140600000001
      1.05	116.34846400000001
      1.1000000000000001	128.54732899999999
      1.1499999999999999	143.76543100000001
      1.2	163.75416899999999
      1.25	191.86815799999999
      1.3	234.833507
      1.3500000000000001	306.50976900000001
      1.3999999999999999	435.255202
      1.45	674.911968
      1.5	1108.3255690000001
      1.55	1813.085468
      1.6000000000000001	2801.2174209999998
      1.6499999999999999	4053.6531169999998
      1.7	5591.10689
      1.75	7448.318413
      1.8	9708.81567
      1.8500000000000001	12486.931615
      1.8999999999999999	16041.483644
      1.95	21249.420623999998
      2	31313.495878000002
      2.0499999999999998	53589.446877000002
      2.1000000000000001	88477.484601000004
      2.1499999999999999	124329.41054
      2.2000000000000002	159968.5693
      2.25	197751.604272
      2.2999999999999998	234024.75134700001
  <EndBlock>
  <BeginBlock>
    <BlockName> = "Coil"
    <Mu_x> = 1
    <Mu_y> = 1
    <H_c> = 0
    <H_cAngle> = 0
    <J_re> = 0
    <J_im> = 0
    <Sigma> = 0
    <d_lam> = 0
    <Phi_h> = 0
    <Phi_hx> = 0
    <Phi_hy> = 0
    <LamType> = 0
    <LamFill> = 1
    <NStrands> = 0
    <WireD> = 0
    <BHPoints> = 0
  <EndBlock>
[CircuitProps]  = 3
  <BeginCircuit>
    <CircuitName> = "R"
    <TotalAmps_re> = 80
    <TotalAmps_im> = 0
    <CircuitType> = 1
  <EndCircuit>
  <BeginCircuit>
    <CircuitName> = "Y"
    <TotalAmps_re> = -40
    <TotalAmps_im> = 0
    <CircuitType> = 1
  <EndCircuit>
  <BeginCircuit>
    <CircuitName> = "B"
    <TotalAmps_re> = -40
    <TotalAmps_im> = 0
    <CircuitType> = 1
  <EndCircuit>
[NumPoints] = 114
-40.703193977868615	23.500000000000004	0	0
-43.301270189221931	25.000000000000007	0	0
-69.282032302755084	40.000000000000007	0	0
69.282032302755084	40.000000000000007	0	0
43.301270189221931	25.000000000000007	0	0
40.703193977868615	23.500000000000004	0	0
-42.298804278430616	26.661041926658079	0	0
-50.689150883454602	31.505713493180462	0	0
-57.895542354288089	35.666597475829313	0	0
-55.680897150318323	39.033801922637174	0	0
-49.006000610835699	34.064819155996872	0	0
-41.234298625604623	28.279544141560354	0	0
-38.917636845075613	31.391360951618729	0	0
-46.688818887798107	37.177334370048463	0	0
-53.363434170651608	42.146694929905628	0	0
-50.772855028594243	45.234026929352126	0	0
-44.719955441238461	39.52373445581334	0	0
-37.672432360009573	32.875337870210608	0	0
-35.01017513596986	35.697165671082601	0	0
-42.057100710600594	42.346195576679605	0	0
-48.109677083968471	48.05683063703097	0	0
-45.178197142623063	50.822539320091884	0	0
-39.829149590661409	44.448159049444506	0	0
-33.601111073196044	37.026549051278622	0	0
-30.629260867541397	39.520227462757568	0	0
-36.856632394570767	46.942397132352291	0	0
-42.205319146100464	53.317080150509049	0	0
-38.972581642767111	55.723764051774644	0	0
-34.399722818134983	48.771498542032553	0	0
-29.075392401282141	40.677039674876347	0	0
-25.834138389882895	42.808845974312113	0	0
-31.157741352363338	50.903783295735771	0	0
-35.730206669326343	57.85630761954333	0	0
-32.239928833028529	59.871420467876455	0	0
-28.505098806663458	52.435287183559446	0	0
-24.15647892550804	43.777443117677464	0	0
-20.689653508549348	45.518548281949542	0	0
-25.037495308968406	54.176783114664396	0	0
-28.771904441943374	61.613127779586705	0	0
-25.07128629290164	63.209418630607281	0	0
-22.224992233869482	55.389978517818925	0	0
-18.910890512316783	46.285831741810227	0	0
-15.26537655627987	47.612690310409697	0	0
-18.578660092939423	56.717134881365617	0	0
-21.424511564721552	64.536736082739054	0	0
-17.563597615050892	65.69261784109824	0	0
-15.644330767728462	57.595615413240488	0	0
-13.409564746274381	48.168283894233511	0	0
-9.6346615735941992	49.062952381224548	0	0
-11.868580370545446	58.490484696127318	0	0
-13.787388921991226	66.587595742103147	0	0
-9.8183914095252707	67.287437089915684	0	0
-8.8521065655512583	59.022370414548114	0	0
-7.7268976209308615	49.39934263890212	0	0
-3.8736543212323462	49.849722187787549	0	0
-4.9979984589982198	59.472851044857869	0	0
-5.9638154961344982	67.7379723990028	0	0
-1.9404083034780681	67.972309182606068	0	0
-1.94017280772114	59.65094910792434	0	0
-1.9397374606326074	49.962360018155856	0	0
1.9397374606326074	49.962360018155856	0	0
1.94017280772114	59.65094910792434	0	0
1.9404083034780681	67.972309182606068	0	0
5.9638154961344982	67.7379723990028	0	0
4.9979984589982198	59.472851044857869	0	0
3.8736543212323462	49.849722187787549	0	0
7.7268976209308615	49.39934263890212	0	0
8.8521065655512583	59.022370414548114	0	0
9.8183914095252707	67.287437089915684	0	0
13.787388921991226	66.587595742103147	0	0
11.868580370545446	58.490484696127318	0	0
9.6346615735941992	49.062952381224548	0	0
13.409564746274381	48.168283894233511	0	0
15.644330767728462	57.595615413240488	0	0
17.563597615050892	65.69261784109824	0	0
21.424511564721552	64.536736082739054	0	0
18.578660092939423	56.717134881365617	0	0
15.26537655627987	47.612690310409697	0	0
18.910890512316783	46.285831741810227	0	0
22.224992233869482	55.389978517818925	0	0
25.07128629290164	63.209418630607281	0	0
28.771904441943374	61.613127779586705	0	0
25.037495308968406	54.176783114664396	0	0
20.689653508549348	45.518548281949542	0	0
24.15647892550804	43.777443117677464	0	0
28.505098806663458	52.435287183559446	0	0
32.239928833028529	59.871420467876455	0	0
35.730206669326343	57.85630761954333	0	0
31.157741352363338	50.903783295735771	0	0
25.834138389882895	42.808845974312113	0	0
29.075392401282141	40.677039674876347	0	0
34.399722818134983	48.771498542032553	0	0
38.972581642767111	55.723764051774644	0	0
42.205319146100464	53.317080150509049	0	0
36.856632394570767	46.942397132352291	0	0
30.629260867541397	39.520227462757568	0	0
33.601111073196044	37.026549051278622	0	0
39.829149590661409	44.448159049444506	0	0
45.178197142623063	50.822539320091884	0	0
48.109677083968471	48.05683063703097	0	0
42.057100710600594	42.346195576679605	0	0
35.01017513596986	35.697165671082601	0	0
37.672432360009573	32.875337870210608	0	0
44.719955441238461	39.52373445581334	0	0
50.772855028594243	45.234026929352126	0	0
53.363434170651608	42.146694929905628	0	0
46.688818887798107	37.177334370048463	0	0
38.917636845075613	31.391360951618729	0	0
41.234298625604623	28.279544141560354	0	0
49.006000610835699	34.064819155996872	0	0
55.680897150318323	39.033801922637174	0	0
57.895542354288089	35.666597475829313	0	0
50.689150883454602	31.505713493180462	0	0
42.298804278430616	26.661041926658079	0	0
[NumSegments] = 112
0	1	-1	3	0	0
1	2	-1	2	0	0
3	4	-1	2	0	0
4	5	-1	3	0	0
6	7	-1	0	0	0
7	8	-1	0	0	0
8	9	-1	0	0	0
9	10	-1	0	0	0
10	11	-1	0	0	0
7	10	-1	0	0	0
12	13	-1	0	0	0
13	14	-1	0	0	0
14	15	-1	0	0	0
15	16	-1	0	0	0
16	17	-1	0	0	0
13	16	-1	0	0	0
18	19	-1	0	0	0
19	20	-1	0	0	0
20	21	-1	0	0	0
21	22	-1	0	0	0
22	23	-1	0	0	0
19	22	-1	0	0	0
24	25	-1	0	0	0
25	26	-1	0	0	0
26	27	-1	0	0	0
27	28	-1	0	0	0
28	29	-1	0	0	0
25	28	-1	0	0	0
30	31	-1	0	0	0
31	32	-1	0	0	0
32	33	-1	0	0	0
33	34	-1	0	0	0
34	35	-1	0	0	0
31	34	-1	0	0	0
36	37	-1	0	0	0
37	38	-1	0	0	0
38	39	-1	0	0	0
39	40	-1	0	0	0
40	41	-1	0	0	0
37	40	-1	0	0	0
42	43	-1	0	0	0
43	44	-1	0	0	0
44	45	-1	0	0	0
45	46	-1	0	0	0
46	47	-1	0	0	0
43	46	-1	0	0	0
48	49	-1	0	0	0
49	50	-1	0	0	0
50	51	-1	0	0	0
51	52	-1	0	0	0
52	53	-1	0	0	0
49	52	-1	0	0	0
54	55	-1	0	0	0
55	56	-1	0	0	0
56	57	-1	0	0	0
57	58	-1	0	0	0
58	59	-1	0	0	0
55	58	-1	0	0	0
60	61	-1	0	0	0
61	62	-1	0	0	0
62	63	-1	0	0	0
63	64	-1	0	0	0
64	65	-1	0	0	0
61	64	-1	0	0	0
66	67	-1	0	0	0
67	68	-1	0	0	0
68	69	-1	0	0	0
69	70	-1	0	0	0
70	71	-1	0	0	0
67	70	-1	0	0	0
72	73	-1	0	0	0
73	74	-1	0	0	0
74	75	-1	0	0	0
75	76	-1	0	0	0
76	77	-1	0	0	0
73	76	-1	0	0	0
78	79	-1	0	0	0
79	80	-1	0	0	0
80	81	-1	0	0	0
81	82	-1	0	0	0
82	83	-1	0	0	0
79	82	-1	0	0	0
84	85	-1	0	0	0
85	86	-1	0	0	0
86	87	-1	0	0	0
87	88	-1	0	0	0
88	89	-1	0	0	0
85	88	-1	0	0	0
90	91	-1	0	0	0
91	92	-1	0	0	0
92	93	-1	0	0	0
93	94	-1	0	0	0
94	95	-1	0	0	0
91	94	-1	0	0	0
96	97	-1	0	0	0
97	98	-1	0	0	0
98	99	-1	0	0	0
99	100	-1	0	0	0
100	101	-1	0	0	0
97	100	-1	0	0	0
102	103	-1	0	0	0
103	104	-1	0	0	0
104	105	-1	0	0	0
105	106	-1	0	0	0
106	107	-1	0	0	0
103	106	-1	0	0	0
108	109	-1	0	0	0
109	110	-1	0	0	0
110	111	-1	0	0	0
111	112	-1	0	0	0
112	113	-1	0	0	0
109	112	-1	0	0	0
[NumArcSegments] = 39
5	0	120	1	0	0	0	1
4	113	2.2233333333333176	1	0	0	0	1
3	2	120	1	1	0	0	1
6	1	2.2233333333333198	1	0	0	0	1
11	6	2.2200000000000153	1	0	0	0	1
12	11	4.4466666666666645	1	0	0	0	1
17	12	2.2200000000000029	1	0	0	0	1
18	17	4.4466666666666619	1	0	0	0	1
23	18	2.220000000000006	1	0	0	0	1
24	23	4.4466666666666681	1	0	0	0	1
29	24	2.2200000000000055	1	0	0	0	1
30	29	4.4466666666666619	1	0	0	0	1
35	30	2.2200000000000029	1	0	0	0	1
36	35	4.4466666666666619	1	0	0	0	1
41	36	2.2199999999999998	1	0	0	0	1
42	41	4.4466666666666663	1	0	0	0	1
47	42	2.2199999999999998	1	0	0	0	1
48	47	4.4466666666666619	1	0	0	0	1
53	48	2.2199999999999958	1	0	0	0	1
54	53	4.4466666666666645	1	0	0	0	1
59	54	2.2199999999999989	1	0	0	0	1
60	59	4.4466666666666645	1	0	0	0	1
65	60	2.2199999999999989	1	0	0	0	1
66	65	4.4466666666666628	1	0	0	0	1
71	66	2.2199999999999949	1	0	0	0	1
72	71	4.4466666666666619	1	0	0	0	1
77	72	2.2199999999999998	1	0	0	0	1
78	77	4.4466666666666645	1	0	0	0	1
83	78	2.2200000000000055	1	0	0	0	1
84	83	4.4466666666666619	1	0	0	0	1
89	84	2.2199999999999998	1	0	0	0	1
90	89	4.4466666666666574	1	0	0	0	1
95	90	2.2200000000000029	1	0	0	0	1
96	95	4.446666666666661	1	0	0	0	1
101	96	2.220000000000006	1	0	0	0	1
102	101	4.4466666666666521	1	0	0	0	1
107	102	2.2199999999999962	1	0	0	0	1
108	107	4.4466666666666645	1	0	0	0	1
113	108	2.220000000000006	1	0	0	0	1
[NumHoles] = 0
[NumBlockLabels] = 38
0	74	2	-1	0	0	0	1	0
0	48.5	1	-1	0	0	0	1	0
-45.80706359958139	30.12777967934894	3	-1	0	0	1	1	0
-53.317897749724182	35.067733011910953	3	-1	0	0	2	1	0
-41.999710883530433	35.241941911922787	3	-1	0	0	3	1	0
-48.886265882070603	41.020447671279889	3	-1	0	0	4	1	0
-37.62438412760698	39.879517337121328	3	-1	0	0	5	1	0
-43.793531131963391	46.418431145811745	3	-1	0	0	6	1	0
-32.740252120382323	43.977790703004686	3	-1	0	0	7	1	0
-38.108564000393329	51.188684969167134	3	-1	0	0	8	1	0
-27.413364368604434	47.481339892821197	3	-1	0	0	9	1	0
-31.908243915345416	55.266699641678748	3	-1	0	0	10	1	0
-21.715757890926007	50.342785414060771	3	-1	0	0	11	1	0
-25.276419569420728	58.597327010669325	3	-1	0	0	12	1	0
-15.724483040805534	52.523431124812333	3	-1	0	0	13	1	0
-18.302775010110082	61.13552605461085	3	-1	0	0	14	1	0
-9.5205615326554422	53.993787532700523	3	-1	0	0	15	1	0
-11.081616816903301	62.846971985673562	3	-1	0	0	16	1	0
-3.1878907621460781	54.733970589681405	3	-1	0	0	17	1	0
-3.710598766582982	63.708520433597769	3	-1	0	0	18	1	0
3.1878907621460781	54.733970589681405	3	-1	0	0	19	1	0
3.7105987665829816	63.708520433597769	3	-1	0	0	20	1	0
9.5205615326554422	53.993787532700523	3	-1	0	0	21	1	0
11.081616816903299	62.846971985673569	3	-1	0	0	22	1	0
15.724483040805532	52.523431124812326	3	-1	0	0	23	1	0
18.302775010110082	61.13552605461085	3	-1	0	0	24	1	0
21.715757890926007	50.342785414060771	3	-1	0	0	25	1	0
25.276419569420725	58.597327010669325	3	-1	0	0	26	1	0
27.413364368604434	47.481339892821197	3	-1	0	0	27	1	0
31.908243915345416	55.266699641678748	3	-1	0	0	28	1	0
32.740252120382323	43.977790703004686	3	-1	0	0	29	1	0
38.108564000393329	51.188684969167134	3	-1	0	0	30	1	0
37.624384127606973	39.879517337121328	3	-1	0	0	31	1	0
43.793531131963384	46.418431145811745	3	-1	0	0	32	1	0
41.99971088353044	35.241941911922787	3	-1	0	0	33	1	0
48.886265882070603	41.020447671279889	3	-1	0	0	34	1	0
45.807063599581383	30.12777967934894	3	-1	0	0	35	1	0
53.317897749724182	35.067733011910953	3	-1	0	0	36	1	0
