[Format]      =  4.0
[Frequency]   =  0
[Precision]   =  1e-008
[MinAngle]    =  30
[DoSmartMesh] =  1
[Depth]       =  120
[LengthUnits] =  millimeters
[ProblemType] =  planar
[Coordinates] =  cartesian
[ACSolver]    =  0
[PrevType]    =  0
[PrevSoln]    =  ""
[Comment]     =  "Add comments here."
[PointProps]   = 0
[BdryProps]   = 3
  <BeginBdry>
    <BdryName> = "Zero"
    <BdryType> = 0
    <A_0> = 0
    <A_1> = 0
    <A_2> = 0
    <Phi> = 0
    <c0> = 0
    <c0i> = 0
    <c1> = 0
    <c1i> = 0
    <Mu_ssd> = 0
    <Sigma_ssd> = 0
    <innerangle> = 0
    <outerangle> = 0
  <EndBdry>
  <BeginBdry>
    <BdryName> = "SA"
    <BdryType> = 4
    <A_0> = 0
    <A_1> = 0
    <A_2> = 0
    <Phi> = 0
    <c0> = 0
    <c0i> = 0
    <c1> = 0
    <c1i> = 0
    <Mu_ssd> = 0
    <Sigma_ssd> = 0
    <innerangle> = 0
    <outerangle> = 0
  <EndBdry>
  <BeginBdry>
    <BdryName> = "SB"
    <BdryType> = 4
    <A_0> = 0
    <A_1> = 0
    <A_2> = 0
    <Phi> = 0
    <c0> = 0
    <c0i> = 0
    <c1> = 0
    <c1i> = 0
    <Mu_ssd> = 0
    <Sigma_ssd> = 0
    <innerangle> = 0
    <outerangle> = 0
  <EndBdry>
[BlockProps]  = 3
  <BeginBlock>
    <BlockName> = "Air"
    <Mu_x> = 1
    <Mu_y> = 1
    <H_c> = 0
    <H_cAngle> = 0
    <J_re> = 0
    <J_im> = 0
    <Sigma> = 0
    <d_lam> = 0
    <Phi_h> = 0
    <Phi_hx> = 0
    <Phi_hy> = 0
    <LamType> = 0
    <LamFill> = 1
    <NStrands> = 0
    <WireD> = 0
    <BHPoints> = 0
  <EndBlock>
  <BeginBlock>
    <BlockName> = "M-15 Steel"
    <Mu_x> = 1
    <Mu_y> = 1
    <H_c> = 0
    <H_cAngle> = 0
    <J_re> = 0
    <J_im> = 0
    <Sigma> = 1.8999999999999999
    <d_lam> = 0.63500000000000001
    <Phi_h> = 0
    <Phi_hx> = 0
    <Phi_hy> = 0
    <LamType> = 0
    <LamFill> = 0.97999999999999998
    <NStrands> = 0
    <WireD> = 0
    <BHPoints> = 47
      0	0
      0.050000000000000003	15.120714
      0.10000000000000001	22.718292000000002
      0.14999999999999999	27.842732999999999
      0.20000000000000001	31.871434000000001
      0.25	35.365043999999997
      0.29999999999999999	38.600588000000002
      0.34999999999999998	41.736201999999999
      0.40000000000000002	44.873978999999999
      0.45000000000000001	48.087806999999998
      0.5	51.437235999999999
      0.55000000000000004	54.975220999999998
      0.59999999999999998	58.752992999999996
      0.65000000000000002	62.823644000000002
      0.69999999999999996	67.245284999999996
      0.75	72.084406000000001
      0.80000000000000004	77.420100000000005
      0.84999999999999998	83.350020999999998
      0.90000000000000002	89.999611999999999
      0.94999999999999996	97.537352999999996
      1	106.20140600000001
      1.05	116.34846400000001
      1.1000000000000001	128.54732899999999
      1.1499999999999999	143.76543100000001
      1.2	163.75416899999999
      1.25	191.86815799999999
      1.3	234.833507
      1.3500000000000001	306.50976900000001
      1.3999999999999999	435.255202
      1.45	674.911968
      1.5	1108.3255690000001
      1.55	1813.085468
      1.6000000000000001	2801.2174209999998
      1.6499999999999999	4053.6531169999998
      1.7	5591.10689
      1.75	7448.318413
      1.8	9708.81567
      1.8500000000000001	12486.931615
      1.8999999999999999	16041.483644
      1.95	21249.420623999998
      2	31313.495878000002
      2.0499999999999998	53589.446877000002
      2.1000000000000001	88477.484601000004
      2.1499999999999999	124329.41054
      2.2000000000000002	159968.5693
      2.25	197751.604272
      2.2999999999999998	234024.75134700001
  <EndBlock>
  <BeginBlock>
    <BlockName> = "Coil"
    <Mu_x> = 1
    <Mu_y> = 1
    <H_c> = 0
    <H_cAngle> = 0
    <J_re> = 0
    <J_im> = 0
    <Sigma> = 0
    <d_lam> = 0
    <Phi_h> = 0
    <Phi_hx> = 0
    <Phi_hy> = 0
    <LamType> = 0
    <LamFill> = 1
    <NStrands> = 0
    <WireD> = 0
    <BHPoints> = 0
  <EndBlock>
[CircuitProps]  = 3
  <BeginCircuit>
    <CircuitName> = "R"
    <TotalAmps_re> = 80
    <TotalAmps_im> = 0
    <CircuitType> = 1
  <EndCircuit>
  <BeginCircuit>
    <CircuitName> = "Y"
    <TotalAmps_re> = -40
    <TotalAmps_im> = 0
    <CircuitType> = 1
  <EndCircuit>
  <BeginCircuit>
    <CircuitName> = "B"
    <TotalAmps_re> = -40
    <TotalAmps_im> = 0
    <CircuitType> = 1
  <EndCircuit>
[NumPoints] = 60
-40.703193977868615	23.500000000000004	0	0
-43.301270189221931	25.000000000000007	0	0
-69.282032302755084	40.000000000000007	0	0
69.282032302755084	40.000000000000007	0	0
43.301270189221931	25.000000000000007	0	0
40.703193977868615	23.500000000000004	0	0
-41.232653318636522	28.281943007953547	0	0
-49.63719760618401	33.138325452633254	0	0
-56.852731750928022	37.306392112572624	0	0
-52.044679640796446	43.764726905201499	0	0
-45.982276975492844	38.047735861008348	0	0
-38.919463054564488	31.389096762162339	0	0
-33.598956899028146	37.028503822018635	0	0
-40.65699674144907	43.692203148454304	0	0
-46.716812907391358	49.41193572180503	0	0
-40.548967962399026	54.587372140306755	0	0
-35.968407013219242	47.626397060153529	0	0
-30.631560009340159	39.518445457712438	0	0
-24.153932016227316	43.778848410567733	0	0
-29.484966658711254	51.890622863236914	0	0
-34.06237858782093	58.853669086472074	0	0
-26.867250925439521	62.467198013913425	0	0
-24.015470918787848	54.637506866152442	0	0
-20.692301635328523	45.517344529668911	0	0
-13.406762406419404	48.169063949570571	0	0
-16.72339439150316	57.291605668075327	0	0
-19.571632621862982	65.12258591698297	0	0
-11.737113436760877	66.979401073558478	0	0
-10.767854570951647	58.703094534605547	0	0
-9.6375159241536732	49.062391776305446	0	0
-1.9368307650703136	49.962472782954578	0	0
-3.0602596039598304	59.603983181968395	0	0
-4.0257748753321216	67.88072728435624	0	0
4.0257748753321216	67.88072728435624	0	0
3.0602596039598304	59.603983181968395	0	0
1.9368307650703136	49.962472782954578	0	0
9.6375159241536732	49.062391776305446	0	0
10.767854570951647	58.703094534605547	0	0
11.737113436760877	66.979401073558478	0	0
19.571632621862982	65.12258591698297	0	0
16.72339439150316	57.291605668075327	0	0
13.406762406419404	48.169063949570571	0	0
20.692301635328523	45.517344529668911	0	0
24.015470918787848	54.637506866152442	0	0
26.867250925439521	62.467198013913425	0	0
34.06237858782093	58.853669086472074	0	0
29.484966658711254	51.890622863236914	0	0
24.153932016227316	43.778848410567733	0	0
30.631560009340159	39.518445457712438	0	0
35.968407013219242	47.626397060153529	0	0
40.548967962399026	54.587372140306755	0	0
46.716812907391358	49.41193572180503	0	0
40.65699674144907	43.692203148454304	0	0
33.598956899028146	37.028503822018635	0	0
38.919463054564488	31.389096762162339	0	0
45.982276975492844	38.047735861008348	0	0
52.044679640796446	43.764726905201499	0	0
56.852731750928022	37.306392112572624	0	0
49.63719760618401	33.138325452633254	0	0
41.232653318636522	28.281943007953547	0	0
[NumSegments] = 58
0	1	-1	3	0	0
1	2	-1	2	0	0
3	4	-1	2	0	0
4	5	-1	3	0	0
6	7	-1	0	0	0
7	8	-1	0	0	0
8	9	-1	0	0	0
9	10	-1	0	0	0
10	11	-1	0	0	0
7	10	-1	0	0	0
12	13	-1	0	0	0
13	14	-1	0	0	0
14	15	-1	0	0	0
15	16	-1	0	0	0
16	17	-1	0	0	0
13	16	-1	0	0	0
18	19	-1	0	0	0
19	20	-1	0	0	0
20	21	-1	0	0	0
21	22	-1	0	0	0
22	23	-1	0	0	0
19	22	-1	0	0	0
24	25	-1	0	0	0
25	26	-1	0	0	0
26	27	-1	0	0	0
27	28	-1	0	0	0
28	29	-1	0	0	0
25	28	-1	0	0	0
30	31	-1	0	0	0
31	32	-1	0	0	0
32	33	-1	0	0	0
33	34	-1	0	0	0
34	35	-1	0	0	0
31	34	-1	0	0	0
36	37	-1	0	0	0
37	38	-1	0	0	0
38	39	-1	0	0	0
39	40	-1	0	0	0
40	41	-1	0	0	0
37	40	-1	0	0	0
42	43	-1	0	0	0
43	44	-1	0	0	0
44	45	-1	0	0	0
45	46	-1	0	0	0
46	47	-1	0	0	0
43	46	-1	0	0	0
48	49	-1	0	0	0
49	50	-1	0	0	0
50	51	-1	0	0	0
51	52	-1	0	0	0
52	53	-1	0	0	0
49	52	-1	0	0	0
54	55	-1	0	0	0
55	56	-1	0	0	0
56	57	-1	0	0	0
57	58	-1	0	0	0
58	59	-1	0	0	0
55	58	-1	0	0	0
[NumArcSegments] = 21
5	0	120	1	0	0	0	0.88
4	59	4.4466666666666583	1	0	0	0	1
3	2	120	1	1	0	0	0.82999999999999996
6	1	4.4466666666666583	1	0	0	0	1
11	6	4.4400000000000022	1	0	0	0	1
12	11	8.8933333333333291	1	0	0	0	1
17	12	4.4400000000000084	1	0	0	0	1
18	17	8.8933333333333362	1	0	0	0	1
23	18	4.4400000000000022	1	0	0	0	1
24	23	8.8933333333333451	1	0	0	0	1
29	24	4.4400000000000084	1	0	0	0	1
30	29	8.8933333333333398	1	0	0	0	1
35	30	4.4400000000000039	1	0	0	0	1
36	35	8.8933333333333398	1	0	0	0	1
41	36	4.4400000000000031	1	0	0	0	1
42	41	8.8933333333333415	1	0	0	0	1
47	42	4.4399999999999977	1	0	0	0	1
48	47	8.8933333333333451	1	0	0	0	1
53	48	4.440000000000011	1	0	0	0	1
54	53	8.8933333333333255	1	0	0	0	1
59	54	4.4400000000000013	1	0	0	0	1
[NumHoles] = 0
[NumBlockLabels] = 20
0	74	2	-1	0	0	0	1	0
0	48.5	1	-1	0	0	0	1	0
-43.942897738719466	32.714275270939368	3	-1	1	0	1	10	0
-51.129221493350336	38.064295082853931	3	-1	1	0	2	10	0
-35.213980165759153	41.966387372084725	3	-1	1	0	3	10	0
-40.972796156114669	48.829477017679906	3	-1	3	0	4	-10	0
-24.586667807263733	48.956080667406503	3	-1	3	0	5	-10	0
-28.607516772689891	56.962249207443712	3	-1	3	0	6	-10	0
-12.633881823256971	53.306538982139223	3	-1	2	0	7	10	0
-14.699998755269666	62.024171798305581	3	-1	2	0	8	10	0
-5.5511151231257827e-017	54.783227982461483	3	-1	2	0	9	10	0
1.1102230246251565e-016	63.742355233162321	3	-1	1	0	10	-10	0
12.633881823256971	53.30653898213923	3	-1	1	0	11	-10	0
14.699998755269668	62.024171798305581	3	-1	1	0	12	-10	0
24.586667807263737	48.956080667406496	3	-1	3	0	13	10	0
28.607516772689888	56.962249207443719	3	-1	3	0	14	10	0
35.213980165759153	41.966387372084725	3	-1	3	0	15	10	0
40.972796156114676	48.829477017679906	3	-1	2	0	16	-10	0
43.942897738719466	32.714275270939375	3	-1	2	0	17	-10	0
51.129221493350329	38.064295082853931	3	-1	2	0	18	-10	0
