[Format]      =  4.0
[Frequency]   =  0
[Precision]   =  1e-008
[MinAngle]    =  30
[DoSmartMesh] =  1
[Depth]       =  120
[LengthUnits] =  millimeters
[ProblemType] =  planar
[Coordinates] =  cartesian
[ACSolver]    =  0
[PrevType]    =  0
[PrevSoln]    =  ""
[Comment]     =  "Add comments here."
[PointProps]   = 0
[BdryProps]   = 3
  <BeginBdry>
    <BdryName> = "Zero"
    <BdryType> = 0
    <A_0> = 0
    <A_1> = 0
    <A_2> = 0
    <Phi> = 0
    <c0> = 0
    <c0i> = 0
    <c1> = 0
    <c1i> = 0
    <Mu_ssd> = 0
    <Sigma_ssd> = 0
    <innerangle> = 0
    <outerangle> = 0
  <EndBdry>
  <BeginBdry>
    <BdryName> = "SA"
    <BdryType> = 4
    <A_0> = 0
    <A_1> = 0
    <A_2> = 0
    <Phi> = 0
    <c0> = 0
    <c0i> = 0
    <c1> = 0
    <c1i> = 0
    <Mu_ssd> = 0
    <Sigma_ssd> = 0
    <innerangle> = 0
    <outerangle> = 0
  <EndBdry>
  <BeginBdry>
    <BdryName> = "SB"
    <BdryType> = 4
    <A_0> = 0
    <A_1> = 0
    <A_2> = 0
    <Phi> = 0
    <c0> = 0
    <c0i> = 0
    <c1> = 0
    <c1i> = 0
    <Mu_ssd> = 0
    <Sigma_ssd> = 0
    <innerangle> = 0
    <outerangle> = 0
  <EndBdry>
[BlockProps]  = 3
  <BeginBlock>
    <BlockName> = "Air"
    <Mu_x> = 1
    <Mu_y> = 1
    <H_c> = 0
    <H_cAngle> = 0
    <J_re> = 0
    <J_im> = 0
    <Sigma> = 0
    <d_lam> = 0
    <Phi_h> = 0
    <Phi_hx> = 0
    <Phi_hy> = 0
    <LamType> = 0
    <LamFill> = 1
    <NStrands> = 0
    <WireD> = 0
    <BHPoints> = 0
  <EndBlock>
  <BeginBlock>
    <BlockName> = "M-15 Steel"
    <Mu_x> = 1
    <Mu_y> = 1
    <H_c> = 0
    <H_cAngle> = 0
    <J_re> = 0
    <J_im> = 0
    <Sigma> = 1.8999999999999999
    <d_lam> = 0.63500000000000001
    <Phi_h> = 0
    <Phi_hx> = 0
    <Phi_hy> = 0
    <LamType> = 0
    <LamFill> = 0.97999999999999998
    <NStrands> = 0
    <WireD> = 0
    <BHPoints> = 47
      0	0
      0.050000000000000003	15.120714
      0.10000000000000001	22.718292000000002
      0.14999999999999999	27.842732999999999
      0.20000000000000001	31.871434000000001
      0.25	35.365043999999997
      0.29999999999999999	38.600588000000002
      0.34999999999999998	41.736201999999999
      0.40000000000000002	44.873978999999999
      0.45000000000000001	48.087806999999998
      0.5	51.437235999999999
      0.55000000000000004	54.975220999999998
      0.59999999999999998	58.752992999999996
      0.65000000000000002	62.823644000000002
      0.69999999999999996	67.245284999999996
      0.75	72.084406000000001
      0.80000000000000004	77.420100000000005
      0.84999999999999998	83.350020999999998
      0.90000000000000002	89.999611999999999
      0.94999999999999996	97.537352999999996
      1	106.20140600000001
      1.05	116.34846400000001
      1.1000000000000001	128.54732899999999
      1.1499999999999999	143.76543100000001
      1.2	163.75416899999999
      1.25	191.86815799999999
      1.3	234.833507
      1.3500000000000001	306.50976900000001
      1.3999999999999999	435.255202
      1.45	674.911968
      1.5	1108.3255690000001
      1.55	1813.085468
      1.6000000000000001	2801.2174209999998
      1.6499999999999999	4053.6531169999998
      1.7	5591.10689
      1.75	7448.318413
      1.8	9708.81567
      1.8500000000000001	12486.931615
      1.8999999999999999	16041.483644
      1.95	21249.420623999998
      2	31313.495878000002
      2.0499999999999998	53589.446877000002
      2.1000000000000001	88477.484601000004
      2.1499999999999999	124329.41054
      2.2000000000000002	159968.5693
      2.25	197751.604272
      2.2999999999999998	234024.75134700001
  <EndBlock>
  <BeginBlock>
    <BlockName> = "Coil"
    <Mu_x> = 1
    <Mu_y> = 1
    <H_c> = 0
    <H_cAngle> = 0
    <J_re> = 0
    <J_im> = 0
    <Sigma> = 0
    <d_lam> = 0
    <Phi_h> = 0
    <Phi_hx> = 0
    <Phi_hy> = 0
    <LamType> = 0
    <LamFill> = 1
    <NStrands> = 0
    <WireD> = 0
    <BHPoints> = 0
  <EndBlock>
[CircuitProps]  = 3
  <BeginCircuit>
    <CircuitName> = "R"
    <TotalAmps_re> = 80
    <TotalAmps_im> = 0
    <CircuitType> = 1
  <EndCircuit>
  <BeginCircuit>
    <CircuitName> = "Y"
    <TotalAmps_re> = -40
    <TotalAmps_im> = 0
    <CircuitType> = 1
  <EndCircuit>
  <BeginCircuit>
    <CircuitName> = "B"
    <TotalAmps_re> = -40
    <TotalAmps_im> = 0
    <CircuitType> = 1
  <EndCircuit>
[NumPoints] = 78
-40.703193977868615	23.500000000000004	0	0
-43.301270189221931	25.000000000000007	0	0
-69.282032302755084	40.000000000000007	0	0
69.282032302755084	40.000000000000007	0	0
43.301270189221931	25.000000000000007	0	0
40.703193977868615	23.500000000000004	0	0
-41.77359132456165	27.476664059679944	0	0
-50.169992562265186	32.326024288524195	0	0
-57.380265364950873	36.489795102847857	0	0
-53.914397776321309	41.439566991181259	0	0
-47.535674530065904	36.088220335334405	0	0
-40.107028152749116	29.85676293161384	0	0
-36.367683965261968	34.313139800997931	0	0
-43.794442434964409	40.546847125400376	0	0
-50.172143778252284	45.899411637780069	0	0
-45.899411637780062	50.172143778252291	0	0
-40.546847125400376	43.794442434964409	0	0
-34.313139800997924	36.367683965261968	0	0
-29.856762931613833	40.107028152749116	0	0
-36.088220335334398	47.535674530065904	0	0
-41.439566991181259	53.914397776321316	0	0
-36.489795102847857	57.380265364950873	0	0
-32.326024288524195	50.169992562265186	0	0
-27.476664059679944	41.77359132456165	0	0
-22.438659264539655	44.682284749214524	0	0
-27.285475922335891	53.080154518347328	0	0
-31.447869930515889	60.291222220430683	0	0
-25.971454608442869	62.844916624350702	0	0
-23.122991561398777	55.021152852802722	0	0
-19.805323784771478	45.910229249921692	0	0
-14.338768290221887	47.899892733902099	0	0
-17.653676130554221	57.011820871442971	0	0
-20.50064525540181	64.836128386202788	0	0
-14.663984607950502	66.400056893181883	0	0
-13.217378436478558	58.200523255954593	0	0
-11.532208768640134	48.651908091219809	0	0
-5.8032010971725789	49.662086716385318	0	0
-7.4854783227368182	59.211211896733182	0	0
-8.9305188480293953	67.411021599624135	0	0
-2.9109568554798089	67.937665033363743	0	0
-2.9101619560821468	59.611500210860086	0	0
-2.9086934246528711	49.915323324219599	0	0
2.9086934246528711	49.915323324219599	0	0
2.9101619560821468	59.611500210860086	0	0
2.9109568554798089	67.937665033363743	0	0
8.9305188480293953	67.411021599624135	0	0
7.4854783227368182	59.211211896733182	0	0
5.8032010971725789	49.662086716385318	0	0
11.532208768640134	48.651908091219809	0	0
13.217378436478558	58.200523255954593	0	0
14.663984607950502	66.400056893181883	0	0
20.50064525540181	64.836128386202788	0	0
17.653676130554221	57.011820871442971	0	0
14.338768290221887	47.899892733902099	0	0
19.805323784771478	45.910229249921692	0	0
23.122991561398777	55.021152852802722	0	0
25.971454608442869	62.844916624350702	0	0
31.447869930515889	60.291222220430683	0	0
27.285475922335891	53.080154518347328	0	0
22.438659264539655	44.682284749214524	0	0
27.476664059679944	41.77359132456165	0	0
32.326024288524195	50.169992562265186	0	0
36.489795102847857	57.380265364950873	0	0
41.439566991181259	53.914397776321316	0	0
36.088220335334398	47.535674530065904	0	0
29.856762931613833	40.107028152749116	0	0
34.313139800997924	36.367683965261968	0	0
40.546847125400376	43.794442434964409	0	0
45.899411637780062	50.172143778252291	0	0
50.172143778252284	45.899411637780069	0	0
43.794442434964409	40.546847125400376	0	0
36.367683965261968	34.313139800997931	0	0
40.107028152749116	29.85676293161384	0	0
47.535674530065904	36.088220335334405	0	0
53.914397776321309	41.439566991181259	0	0
57.380265364950873	36.489795102847857	0	0
50.169992562265186	32.326024288524195	0	0
41.77359132456165	27.476664059679944	0	0
[NumSegments] = 76
0	1	-1	3	0	0
1	2	-1	2	0	0
3	4	-1	2	0	0
4	5	-1	3	0	0
6	7	-1	0	0	0
7	8	-1	0	0	0
8	9	-1	0	0	0
9	10	-1	0	0	0
10	11	-1	0	0	0
7	10	-1	0	0	0
12	13	-1	0	0	0
13	14	-1	0	0	0
14	15	-1	0	0	0
15	16	-1	0	0	0
16	17	-1	0	0	0
13	16	-1	0	0	0
18	19	-1	0	0	0
19	20	-1	0	0	0
20	21	-1	0	0	0
21	22	-1	0	0	0
22	23	-1	0	0	0
19	22	-1	0	0	0
24	25	-1	0	0	0
25	26	-1	0	0	0
26	27	-1	0	0	0
27	28	-1	0	0	0
28	29	-1	0	0	0
25	28	-1	0	0	0
30	31	-1	0	0	0
31	32	-1	0	0	0
32	33	-1	0	0	0
33	34	-1	0	0	0
34	35	-1	0	0	0
31	34	-1	0	0	0
36	37	-1	0	0	0
37	38	-1	0	0	0
38	39	-1	0	0	0
39	40	-1	0	0	0
40	41	-1	0	0	0
37	40	-1	0	0	0
42	43	-1	0	0	0
43	44	-1	0	0	0
44	45	-1	0	0	0
45	46	-1	0	0	0
46	47	-1	0	0	0
43	46	-1	0	0	0
48	49	-1	0	0	0
49	50	-1	0	0	0
50	51	-1	0	0	0
51	52	-1	0	0	0
52	53	-1	0	0	0
49	52	-1	0	0	0
54	55	-1	0	0	0
55	56	-1	0	0	0
56	57	-1	0	0	0
57	58	-1	0	0	0
58	59	-1	0	0	0
55	58	-1	0	0	0
60	61	-1	0	0	0
61	62	-1	0	0	0
62	63	-1	0	0	0
63	64	-1	0	0	0
64	65	-1	0	0	0
61	64	-1	0	0	0
66	67	-1	0	0	0
67	68	-1	0	0	0
68	69	-1	0	0	0
69	70	-1	0	0	0
70	71	-1	0	0	0
67	70	-1	0	0	0
72	73	-1	0	0	0
73	74	-1	0	0	0
74	75	-1	0	0	0
75	76	-1	0	0	0
76	77	-1	0	0	0
73	76	-1	0	0	0
[NumArcSegments] = 27
5	0	120	1	0	0	0	0.87
4	77	3.334999999999992	1	0	0	0	1
3	2	120	1	1	0	0	0.81999999999999995
6	1	3.334999999999992	1	0	0	0	1
11	6	3.3299999999999965	1	0	0	0	1
12	11	6.670000000000007	1	0	0	0	1
17	12	3.329999999999993	1	0	0	0	1
18	17	6.6700000000000088	1	0	0	0	1
23	18	3.329999999999993	1	0	0	0	1
24	23	6.6700000000000079	1	0	0	0	1
29	24	3.3300000000000027	1	0	0	0	1
30	29	6.6699999999999964	1	0	0	0	1
35	30	3.3299999999999992	1	0	0	0	1
36	35	6.6699999999999919	1	0	0	0	1
41	36	3.329999999999997	1	0	0	0	1
42	41	6.6699999999999919	1	0	0	0	1
47	42	3.3299999999999961	1	0	0	0	1
48	47	6.6699999999999893	1	0	0	0	1
53	48	3.3299999999999987	1	0	0	0	1
54	53	6.6699999999999875	1	0	0	0	1
59	54	3.3299999999999992	1	0	0	0	1
60	59	6.6699999999999919	1	0	0	0	1
65	60	3.329999999999989	1	0	0	0	1
66	65	6.6699999999999999	1	0	0	0	1
71	66	3.3299999999999841	1	0	0	0	1
72	71	6.6699999999999999	1	0	0	0	1
77	72	3.329999999999993	1	0	0	0	1
[NumHoles] = 0
[NumBlockLabels] = 26
0	74	2	-1	0	0	0	1	0
0	48.5	1	-1	0	0	0	1	0
-44.896571642410464	31.4369179037881	3	-1	1	0	1	10	0
-52.250082558400813	36.585901679471931	3	-1	1	0	2	10	0
-38.755528331656173	38.755528331656173	3	-1	1	0	3	10	0
-45.103211244099278	45.103211244099285	3	-1	1	0	4	10	0
-31.436917903788093	44.896571642410464	3	-1	3	0	5	-10	0
-36.585901679471931	52.25008255840082	3	-1	3	0	6	-10	0
-23.163112633261449	49.673455342571565	3	-1	3	0	7	-10	0
-26.956948005673357	57.80936155398286	3	-1	3	0	8	-10	0
-14.185507906473699	52.941036238129868	3	-1	2	0	9	10	0
-16.508921107596272	61.61213235169555	3	-1	2	0	10	10	0
-4.7768837001611031	54.600030537049541	3	-1	2	0	11	10	0
-5.5592789955820425	63.542849685145285	3	-1	2	0	12	10	0
4.776883700161104	54.600030537049548	3	-1	1	0	13	-10	0
5.5592789955820425	63.542849685145285	3	-1	1	0	14	-10	0
14.185507906473701	52.941036238129868	3	-1	1	0	15	-10	0
16.508921107596272	61.612132351695564	3	-1	1	0	16	-10	0
23.163112633261449	49.673455342571565	3	-1	3	0	17	10	0
26.956948005673357	57.809361553982853	3	-1	3	0	18	10	0
31.436917903788093	44.896571642410464	3	-1	3	0	19	10	0
36.585901679471931	52.25008255840082	3	-1	3	0	20	10	0
38.755528331656173	38.755528331656173	3	-1	2	0	21	-10	0
45.103211244099285	45.103211244099285	3	-1	2	0	22	-10	0
44.896571642410464	31.436917903788096	3	-1	2	0	23	-10	0
52.25008255840082	36.585901679471931	3	-1	2	0	24	-10	0
