[Format]      =  4.0
[Frequency]   =  0
[Precision]   =  1e-008
[MinAngle]    =  30
[DoSmartMesh] =  1
[Depth]       =  120
[LengthUnits] =  millimeters
[ProblemType] =  planar
[Coordinates] =  cartesian
[ACSolver]    =  0
[PrevType]    =  0
[PrevSoln]    =  ""
[Comment]     =  "Add comments here."
[PointProps]   = 0
[BdryProps]   = 0
[BlockProps]  = 4
  <BeginBlock>
    <BlockName> = "M-15 Steel"
    <Mu_x> = 1
    <Mu_y> = 1
    <H_c> = 0
    <H_cAngle> = 0
    <J_re> = 0
    <J_im> = 0
    <Sigma> = 1.8999999999999999
    <d_lam> = 0.63500000000000001
    <Phi_h> = 0
    <Phi_hx> = 0
    <Phi_hy> = 0
    <LamType> = 0
    <LamFill> = 0.97999999999999998
    <NStrands> = 0
    <WireD> = 0
    <BHPoints> = 47
      0	0
      0.050000000000000003	15.120714
      0.10000000000000001	22.718292000000002
      0.14999999999999999	27.842732999999999
      0.20000000000000001	31.871434000000001
      0.25	35.365043999999997
      0.29999999999999999	38.600588000000002
      0.34999999999999998	41.736201999999999
      0.40000000000000002	44.873978999999999
      0.45000000000000001	48.087806999999998
      0.5	51.437235999999999
      0.55000000000000004	54.975220999999998
      0.59999999999999998	58.752992999999996
      0.65000000000000002	62.823644000000002
      0.69999999999999996	67.245284999999996
      0.75	72.084406000000001
      0.80000000000000004	77.420100000000005
      0.84999999999999998	83.350020999999998
      0.90000000000000002	89.999611999999999
      0.94999999999999996	97.537352999999996
      1	106.20140600000001
      1.05	116.34846400000001
      1.1000000000000001	128.54732899999999
      1.1499999999999999	143.76543100000001
      1.2	163.75416899999999
      1.25	191.86815799999999
      1.3	234.833507
      1.3500000000000001	306.50976900000001
      1.3999999999999999	435.255202
      1.45	674.911968
      1.5	1108.3255690000001
      1.55	1813.085468
      1.6000000000000001	2801.2174209999998
      1.6499999999999999	4053.6531169999998
      1.7	5591.10689
      1.75	7448.318413
      1.8	9708.81567
      1.8500000000000001	12486.931615
      1.8999999999999999	16041.483644
      1.95	21249.420623999998
      2	31313.495878000002
      2.0499999999999998	53589.446877000002
      2.1000000000000001	88477.484601000004
      2.1499999999999999	124329.41054
      2.2000000000000002	159968.5693
      2.25	197751.604272
      2.2999999999999998	234024.75134700001
  <EndBlock>
  <BeginBlock>
    <BlockName> = "Coil"
    <Mu_x> = 1
    <Mu_y> = 1
    <H_c> = 0
    <H_cAngle> = 0
    <J_re> = 0
    <J_im> = 0
    <Sigma> = 0
    <d_lam> = 0
    <Phi_h> = 0
    <Phi_hx> = 0
    <Phi_hy> = 0
    <LamType> = 0
    <LamFill> = 1
    <NStrands> = 0
    <WireD> = 0
    <BHPoints> = 0
  <EndBlock>
  <BeginBlock>
    <BlockName> = "Air"
    <Mu_x> = 1
    <Mu_y> = 1
    <H_c> = 0
    <H_cAngle> = 0
    <J_re> = 0
    <J_im> = 0
    <Sigma> = 0
    <d_lam> = 0
    <Phi_h> = 0
    <Phi_hx> = 0
    <Phi_hy> = 0
    <LamType> = 0
    <LamFill> = 1
    <NStrands> = 0
    <WireD> = 0
    <BHPoints> = 0
  <EndBlock>
  <BeginBlock>
    <BlockName> = "New Material"
    <Mu_x> = 1
    <Mu_y> = 1
    <H_c> = 0
    <H_cAngle> = 0
    <J_re> = 0
    <J_im> = 0
    <Sigma> = 0
    <d_lam> = 0
    <Phi_h> = 0
    <Phi_hx> = 0
    <Phi_hy> = 0
    <LamType> = 0
    <LamFill> = 1
    <NStrands> = 0
    <WireD> = 0
    <BHPoints> = 0
  <EndBlock>
[CircuitProps]  = 3
  <BeginCircuit>
    <CircuitName> = "R"
    <TotalAmps_re> = 10
    <TotalAmps_im> = 0
    <CircuitType> = 1
  <EndCircuit>
  <BeginCircuit>
    <CircuitName> = "B"
    <TotalAmps_re> = -5
    <TotalAmps_im> = 0
    <CircuitType> = 1
  <EndCircuit>
  <BeginCircuit>
    <CircuitName> = "Y"
    <TotalAmps_re> = -5
    <TotalAmps_im> = 0
    <CircuitType> = 1
  <EndCircuit>
[NumPoints] = 29
200	0	0	0
-200	2.4492935982947064e-014	0	0
7.1029514350546488e-015	-116	0	0
17.241378758167322	-114.71152888231164	0	0
27.270213157551648	-181.43606077718314	0	0
143.49313121684216	-114.33472774964794	0	0
90.722408739950581	-72.287236441998118	0	0
107.9637874981179	-42.424292440313522	0	0
170.7633443743938	-67.10133302753519	0	0
170.7633443743938	67.10133302753519	0	0
107.9637874981179	42.424292440313522	0	0
90.722408739950581	72.287236441998118	0	0
143.49313121684216	114.33472774964794	0	0
27.270213157551648	181.43606077718314	0	0
17.241378758167322	114.71152888231164	0	0
-17.241378758167308	114.71152888231164	0	0
-27.270213157551623	181.43606077718314	0	0
-143.49313121684213	114.33472774964798	0	0
-90.722408739950581	72.287236441998104	0	0
-107.9637874981179	42.424292440313522	0	0
-170.7633443743938	67.101333027535205	0	0
-170.76334437439377	-67.101333027535233	0	0
-107.96378749811791	-42.424292440313494	0	0
-90.722408739950595	-72.28723644199809	0	0
-143.49313121684213	-114.33472774964797	0	0
-27.270213157551666	-181.43606077718314	0	0
-17.241378758167439	-114.71152888231163	0	0
115	0	0	0
-115	1.4083438190194563e-014	0	0
[NumSegments] = 12
4	3	-1	0	0	0
5	6	-1	0	0	0
8	7	-1	0	0	0
9	10	-1	0	0	0
12	11	-1	0	0	0
13	14	-1	0	0	0
16	15	-1	0	0	0
17	18	-1	0	0	0
20	19	-1	0	0	0
21	22	-1	0	0	0
24	23	-1	0	0	0
25	26	-1	0	0	0
[NumArcSegments] = 23
0	1	180	1	0	0	0	1
1	0	180	1	0	0	0	1
2	3	8.5476906238245345	1	0	0	0	1
4	5	42.904618752350927	1	0	0	0	1
6	7	17.095381247649069	1	0	0	0	1
8	9	42.904618752350927	1	0	0	0	1
10	11	17.095381247649069	1	0	0	0	1
12	13	42.904618752350927	1	0	0	0	1
14	15	17.095381247649069	1	0	0	0	1
16	17	42.904618752350927	1	0	0	0	1
18	19	17.095381247649069	1	0	0	0	1
20	21	42.904618752350927	1	0	0	0	1
22	23	17.095381247649069	1	0	0	0	1
24	25	42.904618752350927	1	0	0	0	1
26	2	8.5476906238245345	1	0	0	0	1
3	6	42.904618752350927	1	0	0	0	1
7	10	42.904618752350927	1	0	0	0	1
11	14	42.904618752350927	1	0	0	0	1
15	18	42.904618752350927	1	0	0	0	1
19	22	42.904618752350927	1	0	0	0	1
23	26	42.904618752350927	1	0	0	0	1
27	28	180	1	0	0	0	1
28	27	180	1	0	0	0	1
[NumHoles] = 0
[NumBlockLabels] = 9
-64	134	2	-1	1	0	0	1	0
68	123	2	-1	2	0	0	1	0
161	-1	2	-1	3	0	0	1	0
97	-123	2	-1	1	0	0	-1	0
-58	-132	2	-1	2	0	0	-1	0
-135	-6	2	-1	3	0	0	-1	0
-6	165	1	-1	0	0	0	1	0
100.40000000000001	57.399999999999999	3	-1	0	0	0	1	0
20.899999999999999	22.699999999999999	1	-1	0	0	0	1	0
