[Format]      =  4.0
[Frequency]   =  0
[Precision]   =  1e-008
[MinAngle]    =  30
[DoSmartMesh] =  1
[Depth]       =  120
[LengthUnits] =  millimeters
[ProblemType] =  planar
[Coordinates] =  cartesian
[ACSolver]    =  0
[PrevType]    =  0
[PrevSoln]    =  ""
[Comment]     =  "Add comments here."
[PointProps]   = 0
[BdryProps]   = 0
[BlockProps]  = 3
  <BeginBlock>
    <BlockName> = "Air"
    <Mu_x> = 1
    <Mu_y> = 1
    <H_c> = 0
    <H_cAngle> = 0
    <J_re> = 0
    <J_im> = 0
    <Sigma> = 0
    <d_lam> = 0
    <Phi_h> = 0
    <Phi_hx> = 0
    <Phi_hy> = 0
    <LamType> = 0
    <LamFill> = 1
    <NStrands> = 0
    <WireD> = 0
    <BHPoints> = 0
  <EndBlock>
  <BeginBlock>
    <BlockName> = "M-15 Steel"
    <Mu_x> = 1
    <Mu_y> = 1
    <H_c> = 0
    <H_cAngle> = 0
    <J_re> = 0
    <J_im> = 0
    <Sigma> = 1.8999999999999999
    <d_lam> = 0.63500000000000001
    <Phi_h> = 0
    <Phi_hx> = 0
    <Phi_hy> = 0
    <LamType> = 0
    <LamFill> = 0.97999999999999998
    <NStrands> = 0
    <WireD> = 0
    <BHPoints> = 47
      0	0
      0.050000000000000003	15.120714
      0.10000000000000001	22.718292000000002
      0.14999999999999999	27.842732999999999
      0.20000000000000001	31.871434000000001
      0.25	35.365043999999997
      0.29999999999999999	38.600588000000002
      0.34999999999999998	41.736201999999999
      0.40000000000000002	44.873978999999999
      0.45000000000000001	48.087806999999998
      0.5	51.437235999999999
      0.55000000000000004	54.975220999999998
      0.59999999999999998	58.752992999999996
      0.65000000000000002	62.823644000000002
      0.69999999999999996	67.245284999999996
      0.75	72.084406000000001
      0.80000000000000004	77.420100000000005
      0.84999999999999998	83.350020999999998
      0.90000000000000002	89.999611999999999
      0.94999999999999996	97.537352999999996
      1	106.20140600000001
      1.05	116.34846400000001
      1.1000000000000001	128.54732899999999
      1.1499999999999999	143.76543100000001
      1.2	163.75416899999999
      1.25	191.86815799999999
      1.3	234.833507
      1.3500000000000001	306.50976900000001
      1.3999999999999999	435.255202
      1.45	674.911968
      1.5	1108.3255690000001
      1.55	1813.085468
      1.6000000000000001	2801.2174209999998
      1.6499999999999999	4053.6531169999998
      1.7	5591.10689
      1.75	7448.318413
      1.8	9708.81567
      1.8500000000000001	12486.931615
      1.8999999999999999	16041.483644
      1.95	21249.420623999998
      2	31313.495878000002
      2.0499999999999998	53589.446877000002
      2.1000000000000001	88477.484601000004
      2.1499999999999999	124329.41054
      2.2000000000000002	159968.5693
      2.25	197751.604272
      2.2999999999999998	234024.75134700001
  <EndBlock>
  <BeginBlock>
    <BlockName> = "Coil"
    <Mu_x> = 1
    <Mu_y> = 1
    <H_c> = 0
    <H_cAngle> = 0
    <J_re> = 0
    <J_im> = 0
    <Sigma> = 0
    <d_lam> = 0
    <Phi_h> = 0
    <Phi_hx> = 0
    <Phi_hy> = 0
    <LamType> = 0
    <LamFill> = 1
    <NStrands> = 0
    <WireD> = 0
    <BHPoints> = 0
  <EndBlock>
[CircuitProps]  = 3
  <BeginCircuit>
    <CircuitName> = "R"
    <TotalAmps_re> = 10
    <TotalAmps_im> = 0
    <CircuitType> = 1
  <EndCircuit>
  <BeginCircuit>
    <CircuitName> = "B"
    <TotalAmps_re> = -5
    <TotalAmps_im> = 0
    <CircuitType> = 1
  <EndCircuit>
  <BeginCircuit>
    <CircuitName> = "Y"
    <TotalAmps_re> = -5
    <TotalAmps_im> = 0
    <CircuitType> = 1
  <EndCircuit>
[NumPoints] = 30
200	0	0	0
-200	2.4492935982947064e-014	0	0
129	0	0	0
128.63978866945209	9.633523295176321	0	0
190.25924464978374	14.248055632040936	0	0
171.89336698757174	82.790444193010487	0	0
116.22208657279526	55.977018433154178	0	0
106.58856327761893	72.662770236297916	0	0
157.64531135553082	107.46880045677327	0	0
107.46880045677328	157.64531135553082	0	0
72.662770236297916	106.58856327761895	0	0
55.977018433154164	116.22208657279526	0	0
82.790444193010501	171.89336698757174	0	0
14.248055632040947	190.25924464978374	0	0
9.6335232951763281	128.63978866945209	0	0
-9.6335232951763121	128.63978866945209	0	0
-14.248055632040922	190.25924464978374	0	0
-82.790444193010444	171.89336698757177	0	0
-55.97701843315415	116.22208657279528	0	0
-72.662770236297888	106.58856327761896	0	0
-107.46880045677324	157.64531135553082	0	0
-157.64531135553082	107.46880045677327	0	0
-106.58856327761892	72.662770236297945	0	0
-116.22208657279523	55.977018433154221	0	0
-171.89336698757174	82.790444193010472	0	0
-190.25924464978377	14.248055632040876	0	0
-128.63978866945209	9.6335232951762801	0	0
-129	-4.1489564361657224e-014	0	0
128	0	0	0
-128	1.5675479029086121e-014	0	0
[NumSegments] = 16
2	0	-1	0	0	0
4	3	-1	0	0	0
5	6	-1	0	0	0
8	7	-1	0	0	0
9	10	-1	0	0	0
12	11	-1	0	0	0
13	14	-1	0	0	0
16	15	-1	0	0	0
17	18	-1	0	0	0
20	19	-1	0	0	0
21	22	-1	0	0	0
24	23	-1	0	0	0
25	26	-1	0	0	0
27	1	-1	0	0	0
2	28	-1	0	0	0
27	29	-1	0	0	0
[NumArcSegments] = 21
0	1	180	1	0	0	0	1
2	3	4.2827484802705138	1	0	0	0	1
4	5	21.434503039458974	1	0	0	0	1
6	7	8.5654969605410276	1	0	0	0	1
8	9	21.434503039458974	1	0	0	0	1
10	11	8.5654969605410276	1	0	0	0	1
12	13	21.434503039458974	1	0	0	0	1
14	15	8.5654969605410276	1	0	0	0	1
16	17	21.434503039458974	1	0	0	0	1
18	19	8.5654969605410276	1	0	0	0	1
20	21	21.434503039458974	1	0	0	0	1
22	23	8.5654969605410276	1	0	0	0	1
24	25	21.434503039458974	1	0	0	0	1
26	27	4.2827484802705138	1	0	0	0	1
3	6	21.434503039458974	1	0	0	0	1
7	10	21.434503039458974	1	0	0	0	1
11	14	21.434503039458974	1	0	0	0	1
15	18	21.434503039458974	1	0	0	0	1
19	22	21.434503039458974	1	0	0	0	1
23	26	21.434503039458974	1	0	0	0	1
28	29	180	1	0	0	0	1
[NumHoles] = 0
[NumBlockLabels] = 8
-159	48.399999999999999	3	-1	1	0	0	1	0
-116.40000000000001	114.40000000000001	3	-1	2	0	0	1	0
-40.799999999999997	153.80000000000001	3	-1	3	0	0	1	0
34.899999999999999	147.5	3	-1	1	0	0	-1	0
120.7	102	3	-1	2	0	0	-1	0
152.30000000000001	41.200000000000003	3	-1	3	0	0	-1	0
-2	172.30000000000001	2	-1	0	0	0	1	0
4.5	128.58000000000001	1	-1	0	0	0	1	0
