[Format]      =  4.0
[Frequency]   =  0
[Precision]   =  1e-008
[MinAngle]    =  30
[DoSmartMesh] =  1
[Depth]       =  150
[LengthUnits] =  millimeters
[ProblemType] =  planar
[Coordinates] =  cartesian
[ACSolver]    =  0
[PrevType]    =  0
[PrevSoln]    =  ""
[Comment]     =  "Add comments here."
[PointProps]   = 0
[BdryProps]   = 3
  <BeginBdry>
    <BdryName> = "Zero"
    <BdryType> = 0
    <A_0> = 0
    <A_1> = 0
    <A_2> = 0
    <Phi> = 0
    <c0> = 0
    <c0i> = 0
    <c1> = 0
    <c1i> = 0
    <Mu_ssd> = 0
    <Sigma_ssd> = 0
    <innerangle> = 0
    <outerangle> = 0
  <EndBdry>
  <BeginBdry>
    <BdryName> = "SA"
    <BdryType> = 4
    <A_0> = 0
    <A_1> = 0
    <A_2> = 0
    <Phi> = 0
    <c0> = 0
    <c0i> = 0
    <c1> = 0
    <c1i> = 0
    <Mu_ssd> = 0
    <Sigma_ssd> = 0
    <innerangle> = 0
    <outerangle> = 0
  <EndBdry>
  <BeginBdry>
    <BdryName> = "SB"
    <BdryType> = 4
    <A_0> = 0
    <A_1> = 0
    <A_2> = 0
    <Phi> = 0
    <c0> = 0
    <c0i> = 0
    <c1> = 0
    <c1i> = 0
    <Mu_ssd> = 0
    <Sigma_ssd> = 0
    <innerangle> = 0
    <outerangle> = 0
  <EndBdry>
[BlockProps]  = 3
  <BeginBlock>
    <BlockName> = "Air"
    <Mu_x> = 1
    <Mu_y> = 1
    <H_c> = 0
    <H_cAngle> = 0
    <J_re> = 0
    <J_im> = 0
    <Sigma> = 0
    <d_lam> = 0
    <Phi_h> = 0
    <Phi_hx> = 0
    <Phi_hy> = 0
    <LamType> = 0
    <LamFill> = 1
    <NStrands> = 0
    <WireD> = 0
    <BHPoints> = 0
  <EndBlock>
  <BeginBlock>
    <BlockName> = "M-15 Steel"
    <Mu_x> = 1
    <Mu_y> = 1
    <H_c> = 0
    <H_cAngle> = 0
    <J_re> = 0
    <J_im> = 0
    <Sigma> = 1.8999999999999999
    <d_lam> = 0.63500000000000001
    <Phi_h> = 0
    <Phi_hx> = 0
    <Phi_hy> = 0
    <LamType> = 0
    <LamFill> = 0.97999999999999998
    <NStrands> = 0
    <WireD> = 0
    <BHPoints> = 47
      0	0
      0.050000000000000003	15.120714
      0.10000000000000001	22.718292000000002
      0.14999999999999999	27.842732999999999
      0.20000000000000001	31.871434000000001
      0.25	35.365043999999997
      0.29999999999999999	38.600588000000002
      0.34999999999999998	41.736201999999999
      0.40000000000000002	44.873978999999999
      0.45000000000000001	48.087806999999998
      0.5	51.437235999999999
      0.55000000000000004	54.975220999999998
      0.59999999999999998	58.752992999999996
      0.65000000000000002	62.823644000000002
      0.69999999999999996	67.245284999999996
      0.75	72.084406000000001
      0.80000000000000004	77.420100000000005
      0.84999999999999998	83.350020999999998
      0.90000000000000002	89.999611999999999
      0.94999999999999996	97.537352999999996
      1	106.20140600000001
      1.05	116.34846400000001
      1.1000000000000001	128.54732899999999
      1.1499999999999999	143.76543100000001
      1.2	163.75416899999999
      1.25	191.86815799999999
      1.3	234.833507
      1.3500000000000001	306.50976900000001
      1.3999999999999999	435.255202
      1.45	674.911968
      1.5	1108.3255690000001
      1.55	1813.085468
      1.6000000000000001	2801.2174209999998
      1.6499999999999999	4053.6531169999998
      1.7	5591.10689
      1.75	7448.318413
      1.8	9708.81567
      1.8500000000000001	12486.931615
      1.8999999999999999	16041.483644
      1.95	21249.420623999998
      2	31313.495878000002
      2.0499999999999998	53589.446877000002
      2.1000000000000001	88477.484601000004
      2.1499999999999999	124329.41054
      2.2000000000000002	159968.5693
      2.25	197751.604272
      2.2999999999999998	234024.75134700001
  <EndBlock>
  <BeginBlock>
    <BlockName> = "Coil"
    <Mu_x> = 1
    <Mu_y> = 1
    <H_c> = 0
    <H_cAngle> = 0
    <J_re> = 0
    <J_im> = 0
    <Sigma> = 0
    <d_lam> = 0
    <Phi_h> = 0
    <Phi_hx> = 0
    <Phi_hy> = 0
    <LamType> = 0
    <LamFill> = 1
    <NStrands> = 0
    <WireD> = 0
    <BHPoints> = 0
  <EndBlock>
[CircuitProps]  = 3
  <BeginCircuit>
    <CircuitName> = "R"
    <TotalAmps_re> = 152
    <TotalAmps_im> = 0
    <CircuitType> = 1
  <EndCircuit>
  <BeginCircuit>
    <CircuitName> = "Y"
    <TotalAmps_re> = 152
    <TotalAmps_im> = 0
    <CircuitType> = 1
  <EndCircuit>
  <BeginCircuit>
    <CircuitName> = "B"
    <TotalAmps_re> = 152
    <TotalAmps_im> = 0
    <CircuitType> = 1
  <EndCircuit>
[NumPoints] = 186
-77.5	4.7455063466959933e-015	0	0
-78.5	4.8067386866533617e-015	0	0
-126.5	7.7458910046070092e-015	0	0
126.5	7.7458910046070092e-015	0	0
78.5	4.8067386866533617e-015	0	0
77.5	4.7455063466959933e-015	0	0
-78.474522452413012	1.9998314593297435	0	0
-88.488700522181261	1.999969973704065	0	0
-97.479483794707392	2.0000597784517851	0	0
-97.15454415811827	8.2002773994691989	0	0
-88.213003949927966	7.2605739532074329	0	0
-78.253670116731968	6.2139450642640064	0	0
-77.835591498255866	10.191697410963414	0	0
-87.794896374062489	11.238601811063006	0	0
-96.736417807948257	12.178483882900602	0	0
-95.765159004837415	18.310770622183203	0	0
-86.970827246641406	16.441569512514782	0	0
-77.175454195618741	14.359640305382049	0	0
-76.343877515499159	18.271900993012785	0	0
-86.139192969006288	20.354101175151339	0	0
-94.933487384288412	22.223477969416788	0	0
-93.326550729351666	28.22064721018549	0	0
-84.775779960225009	25.442427795623423	0	0
-75.251687848336275	22.348008322366425	0	0
-74.015724034699204	26.151913804141596	0	0
-83.539730539996668	29.246596747395191	0	0
-92.090445806736895	32.024986980738277	0	0
-89.865437234238854	37.821332481802877	0	0
-81.651911488091912	34.164533515632897	0	0
-72.503448261559356	30.091526883549541	0	0
-70.876638792589063	33.745400774992433	0	0
-80.024989341378344	37.818660485430748	0	0
-88.238442033762055	41.475623533039432	0	0
-85.419739203235991	47.007639320126984	0	0
-77.633447586934309	42.512325457056825	0	0
-68.960845723306846	37.505356379139656	0	0
-66.96101426397712	40.969166073273364	0	0
-75.633477613230269	45.976375065124429	0	0
-83.419679424784221	50.471844474580401	0	0
-80.038164634292855	55.67892062507886	0	0
-72.764415388170917	50.394343464497233	0	0
-64.662693728325053	44.508269341739542	0	0
-62.311750850595956	47.744064614706339	0	0
-70.41330967702892	53.630362858429606	0	0
-77.686953351338261	58.915085326145409	0	0
-73.779675184553696	63.740172024099159	0	0
-67.098161027481879	57.724230499246246	0	0
-59.656083729317139	51.023540391477177	0	0
-56.979786855323503	53.995869193132748	0	0
-64.421678785073695	60.696765173382879	0	0
-71.103072759934889	66.712840174102951	0	0
-66.712840174102936	71.103072759934904	0	0
-60.696765173382879	64.421678785073695	0	0
-53.995869193132748	56.979786855323511	0	0
-51.023540391477162	59.656083729317153	0	0
-57.724230499246239	67.098161027481893	0	0
-63.740172024099145	73.779675184553696	0	0
-58.915085326145388	77.686953351338261	0	0
-53.630362858429592	70.41330967702892	0	0
-47.744064614706332	62.311750850595963	0	0
-44.508269341739528	64.662693728325067	0	0
-50.394343464497211	72.764415388170931	0	0
-55.678920625078838	80.038164634292869	0	0
-50.471844474580394	83.419679424784221	0	0
-45.976375065124422	75.633477613230269	0	0
-40.96916607327335	66.96101426397712	0	0
-37.505356379139663	68.960845723306846	0	0
-42.512325457056825	77.633447586934309	0	0
-47.007639320126977	85.419739203235991	0	0
-41.475623533039425	88.238442033762055	0	0
-37.818660485430733	80.024989341378358	0	0
-33.745400774992426	70.876638792589063	0	0
-30.091526883549538	72.503448261559356	0	0
-34.16453351563289	81.651911488091912	0	0
-37.821332481802862	89.865437234238854	0	0
-32.024986980738255	92.090445806736895	0	0
-29.246596747395166	83.539730539996683	0	0
-26.151913804141575	74.015724034699204	0	0
-22.348008322366418	75.251687848336275	0	0
-25.442427795623416	84.775779960225009	0	0
-28.220647210185472	93.326550729351666	0	0
-22.223477969416763	94.933487384288412	0	0
-20.35410117515131	86.139192969006288	0	0
-18.271900993012764	76.343877515499173	0	0
-14.359640305382051	77.175454195618741	0	0
-16.441569512514782	86.970827246641406	0	0
-18.310770622183199	95.765159004837415	0	0
-12.178483882900592	96.736417807948257	0	0
-11.238601811062994	87.794896374062489	0	0
-10.1916974109634	77.835591498255866	0	0
-6.2139450642640019	78.253670116731968	0	0
-7.2605739532074294	88.213003949927966	0	0
-8.2002773994691918	97.15454415811827	0	0
-2.0000597784517664	97.479483794707392	0	0
-1.9999699737040451	88.488700522181261	0	0
-1.9998314593297257	78.474522452413012	0	0
1.9998314593297257	78.474522452413012	0	0
1.9999699737040451	88.488700522181261	0	0
2.0000597784517664	97.479483794707392	0	0
8.2002773994691918	97.15454415811827	0	0
7.2605739532074294	88.213003949927966	0	0
6.2139450642640019	78.253670116731968	0	0
10.1916974109634	77.835591498255866	0	0
11.238601811062994	87.794896374062489	0	0
12.178483882900592	96.736417807948257	0	0
18.310770622183199	95.765159004837415	0	0
16.441569512514782	86.970827246641406	0	0
14.359640305382051	77.175454195618741	0	0
18.271900993012764	76.343877515499173	0	0
20.35410117515131	86.139192969006288	0	0
22.223477969416763	94.933487384288412	0	0
28.220647210185472	93.326550729351666	0	0
25.442427795623416	84.775779960225009	0	0
22.348008322366418	75.251687848336275	0	0
26.151913804141575	74.015724034699204	0	0
29.246596747395166	83.539730539996683	0	0
32.024986980738255	92.090445806736895	0	0
37.821332481802862	89.865437234238854	0	0
34.16453351563289	81.651911488091912	0	0
30.091526883549538	72.503448261559356	0	0
33.745400774992426	70.876638792589063	0	0
37.818660485430733	80.024989341378358	0	0
41.475623533039425	88.238442033762055	0	0
47.007639320126977	85.419739203235991	0	0
42.512325457056825	77.633447586934309	0	0
37.505356379139663	68.960845723306846	0	0
40.96916607327335	66.96101426397712	0	0
45.976375065124422	75.633477613230269	0	0
50.471844474580394	83.419679424784221	0	0
55.678920625078838	80.038164634292869	0	0
50.394343464497211	72.764415388170931	0	0
44.508269341739528	64.662693728325067	0	0
47.744064614706332	62.311750850595963	0	0
53.630362858429592	70.41330967702892	0	0
58.915085326145388	77.686953351338261	0	0
63.740172024099145	73.779675184553696	0	0
57.724230499246239	67.098161027481893	0	0
51.023540391477162	59.656083729317153	0	0
53.995869193132748	56.979786855323511	0	0
60.696765173382879	64.421678785073695	0	0
66.712840174102936	71.103072759934904	0	0
71.103072759934889	66.712840174102951	0	0
64.421678785073695	60.696765173382879	0	0
56.979786855323503	53.995869193132748	0	0
59.656083729317139	51.023540391477177	0	0
67.098161027481879	57.724230499246246	0	0
73.779675184553696	63.740172024099159	0	0
77.686953351338261	58.915085326145409	0	0
70.41330967702892	53.630362858429606	0	0
62.311750850595956	47.744064614706339	0	0
64.662693728325053	44.508269341739542	0	0
72.764415388170917	50.394343464497233	0	0
80.038164634292855	55.67892062507886	0	0
83.419679424784221	50.471844474580401	0	0
75.633477613230269	45.976375065124429	0	0
66.96101426397712	40.969166073273364	0	0
68.960845723306846	37.505356379139656	0	0
77.633447586934309	42.512325457056825	0	0
85.419739203235991	47.007639320126984	0	0
88.238442033762055	41.475623533039432	0	0
80.024989341378344	37.818660485430748	0	0
70.876638792589063	33.745400774992433	0	0
72.503448261559356	30.091526883549541	0	0
81.651911488091912	34.164533515632897	0	0
89.865437234238854	37.821332481802877	0	0
92.090445806736895	32.024986980738277	0	0
83.539730539996668	29.246596747395191	0	0
74.015724034699204	26.151913804141596	0	0
75.251687848336275	22.348008322366425	0	0
84.775779960225009	25.442427795623423	0	0
93.326550729351666	28.22064721018549	0	0
94.933487384288412	22.223477969416788	0	0
86.139192969006288	20.354101175151339	0	0
76.343877515499159	18.271900993012785	0	0
77.175454195618741	14.359640305382049	0	0
86.970827246641406	16.441569512514782	0	0
95.765159004837415	18.310770622183203	0	0
96.736417807948257	12.178483882900602	0	0
87.794896374062489	11.238601811063006	0	0
77.835591498255866	10.191697410963414	0	0
78.253670116731968	6.2139450642640064	0	0
88.213003949927966	7.2605739532074329	0	0
97.15454415811827	8.2002773994691989	0	0
97.479483794707392	2.0000597784517851	0	0
88.488700522181261	1.999969973704065	0	0
78.474522452413012	1.9998314593297435	0	0
[NumSegments] = 184
0	1	-1	3	0	0
1	2	-1	2	0	0
3	4	-1	2	0	0
4	5	-1	3	0	0
6	7	-1	0	0	0
7	8	-1	0	0	0
8	9	-1	0	0	0
9	10	-1	0	0	0
10	11	-1	0	0	0
7	10	-1	0	0	0
12	13	-1	0	0	0
13	14	-1	0	0	0
14	15	-1	0	0	0
15	16	-1	0	0	0
16	17	-1	0	0	0
13	16	-1	0	0	0
18	19	-1	0	0	0
19	20	-1	0	0	0
20	21	-1	0	0	0
21	22	-1	0	0	0
22	23	-1	0	0	0
19	22	-1	0	0	0
24	25	-1	0	0	0
25	26	-1	0	0	0
26	27	-1	0	0	0
27	28	-1	0	0	0
28	29	-1	0	0	0
25	28	-1	0	0	0
30	31	-1	0	0	0
31	32	-1	0	0	0
32	33	-1	0	0	0
33	34	-1	0	0	0
34	35	-1	0	0	0
31	34	-1	0	0	0
36	37	-1	0	0	0
37	38	-1	0	0	0
38	39	-1	0	0	0
39	40	-1	0	0	0
40	41	-1	0	0	0
37	40	-1	0	0	0
42	43	-1	0	0	0
43	44	-1	0	0	0
44	45	-1	0	0	0
45	46	-1	0	0	0
46	47	-1	0	0	0
43	46	-1	0	0	0
48	49	-1	0	0	0
49	50	-1	0	0	0
50	51	-1	0	0	0
51	52	-1	0	0	0
52	53	-1	0	0	0
49	52	-1	0	0	0
54	55	-1	0	0	0
55	56	-1	0	0	0
56	57	-1	0	0	0
57	58	-1	0	0	0
58	59	-1	0	0	0
55	58	-1	0	0	0
60	61	-1	0	0	0
61	62	-1	0	0	0
62	63	-1	0	0	0
63	64	-1	0	0	0
64	65	-1	0	0	0
61	64	-1	0	0	0
66	67	-1	0	0	0
67	68	-1	0	0	0
68	69	-1	0	0	0
69	70	-1	0	0	0
70	71	-1	0	0	0
67	70	-1	0	0	0
72	73	-1	0	0	0
73	74	-1	0	0	0
74	75	-1	0	0	0
75	76	-1	0	0	0
76	77	-1	0	0	0
73	76	-1	0	0	0
78	79	-1	0	0	0
79	80	-1	0	0	0
80	81	-1	0	0	0
81	82	-1	0	0	0
82	83	-1	0	0	0
79	82	-1	0	0	0
84	85	-1	0	0	0
85	86	-1	0	0	0
86	87	-1	0	0	0
87	88	-1	0	0	0
88	89	-1	0	0	0
85	88	-1	0	0	0
90	91	-1	0	0	0
91	92	-1	0	0	0
92	93	-1	0	0	0
93	94	-1	0	0	0
94	95	-1	0	0	0
91	94	-1	0	0	0
96	97	-1	0	0	0
97	98	-1	0	0	0
98	99	-1	0	0	0
99	100	-1	0	0	0
100	101	-1	0	0	0
97	100	-1	0	0	0
102	103	-1	0	0	0
103	104	-1	0	0	0
104	105	-1	0	0	0
105	106	-1	0	0	0
106	107	-1	0	0	0
103	106	-1	0	0	0
108	109	-1	0	0	0
109	110	-1	0	0	0
110	111	-1	0	0	0
111	112	-1	0	0	0
112	113	-1	0	0	0
109	112	-1	0	0	0
114	115	-1	0	0	0
115	116	-1	0	0	0
116	117	-1	0	0	0
117	118	-1	0	0	0
118	119	-1	0	0	0
115	118	-1	0	0	0
120	121	-1	0	0	0
121	122	-1	0	0	0
122	123	-1	0	0	0
123	124	-1	0	0	0
124	125	-1	0	0	0
121	124	-1	0	0	0
126	127	-1	0	0	0
127	128	-1	0	0	0
128	129	-1	0	0	0
129	130	-1	0	0	0
130	131	-1	0	0	0
127	130	-1	0	0	0
132	133	-1	0	0	0
133	134	-1	0	0	0
134	135	-1	0	0	0
135	136	-1	0	0	0
136	137	-1	0	0	0
133	136	-1	0	0	0
138	139	-1	0	0	0
139	140	-1	0	0	0
140	141	-1	0	0	0
141	142	-1	0	0	0
142	143	-1	0	0	0
139	142	-1	0	0	0
144	145	-1	0	0	0
145	146	-1	0	0	0
146	147	-1	0	0	0
147	148	-1	0	0	0
148	149	-1	0	0	0
145	148	-1	0	0	0
150	151	-1	0	0	0
151	152	-1	0	0	0
152	153	-1	0	0	0
153	154	-1	0	0	0
154	155	-1	0	0	0
151	154	-1	0	0	0
156	157	-1	0	0	0
157	158	-1	0	0	0
158	159	-1	0	0	0
159	160	-1	0	0	0
160	161	-1	0	0	0
157	160	-1	0	0	0
162	163	-1	0	0	0
163	164	-1	0	0	0
164	165	-1	0	0	0
165	166	-1	0	0	0
166	167	-1	0	0	0
163	166	-1	0	0	0
168	169	-1	0	0	0
169	170	-1	0	0	0
170	171	-1	0	0	0
171	172	-1	0	0	0
172	173	-1	0	0	0
169	172	-1	0	0	0
174	175	-1	0	0	0
175	176	-1	0	0	0
176	177	-1	0	0	0
177	178	-1	0	0	0
178	179	-1	0	0	0
175	178	-1	0	0	0
180	181	-1	0	0	0
181	182	-1	0	0	0
182	183	-1	0	0	0
183	184	-1	0	0	0
184	185	-1	0	0	0
181	184	-1	0	0	0
[NumArcSegments] = 63
5	0	180	1	0	0	0	0.32000000000000001
4	185	1.4598000000000131	1	0	0	0	1
3	2	180	1	1	0	0	0.89000000000000001
6	1	1.4598000000000093	1	0	0	0	1
11	6	3.0803999999999898	1	0	0	0	1
12	11	2.9196000000000075	1	0	0	0	1
17	12	3.0803999999999894	1	0	0	0	1
18	17	2.9196000000000151	1	0	0	0	1
23	18	3.0803999999999929	1	0	0	0	1
24	23	2.9196000000000026	1	0	0	0	1
29	24	3.0803999999999987	1	0	0	0	1
30	29	2.9195999999999991	1	0	0	0	1
35	30	3.0803999999999978	1	0	0	0	1
36	35	2.9196000000000053	1	0	0	0	1
41	36	3.0804000000000049	1	0	0	0	1
42	41	2.9196000000000022	1	0	0	0	1
47	42	3.0804000000000054	1	0	0	0	1
48	47	2.9195999999999924	1	0	0	0	1
53	48	3.0804000000000022	1	0	0	0	1
54	53	2.9196000000000022	1	0	0	0	1
59	54	3.0803999999999991	1	0	0	0	1
60	59	2.9196000000000115	1	0	0	0	1
65	60	3.0803999999999987	1	0	0	0	1
66	65	2.919599999999996	1	0	0	0	1
71	66	3.0804000000000085	1	0	0	0	1
72	71	2.9195999999999982	1	0	0	0	1
77	72	3.0804000000000125	1	0	0	0	1
78	77	2.9195999999999929	1	0	0	0	1
83	78	3.0804000000000085	1	0	0	0	1
84	83	2.9196	1	0	0	0	1
89	84	3.0804000000000036	1	0	0	0	1
90	89	2.9196000000000026	1	0	0	0	1
95	90	3.0804000000000036	1	0	0	0	1
96	95	2.9196000000000026	1	0	0	0	1
101	96	3.0804000000000036	1	0	0	0	1
102	101	2.9196000000000053	1	0	0	0	1
107	102	3.0804000000000049	1	0	0	0	1
108	107	2.9196000000000009	1	0	0	0	1
113	108	3.080400000000008	1	0	0	0	1
114	113	2.919599999999996	1	0	0	0	1
119	114	3.0804000000000111	1	0	0	0	1
120	119	2.9195999999999991	1	0	0	0	1
125	120	3.0804000000000085	1	0	0	0	1
126	125	2.9195999999999986	1	0	0	0	1
131	126	3.0804000000000031	1	0	0	0	1
132	131	2.9196000000000137	1	0	0	0	1
137	132	3.0804000000000022	1	0	0	0	1
138	137	2.9196000000000115	1	0	0	0	1
143	138	3.080400000000008	1	0	0	0	1
144	143	2.9195999999999991	1	0	0	0	1
149	144	3.0804000000000116	1	0	0	0	1
150	149	2.9196000000000026	1	0	0	0	1
155	150	3.080400000000012	1	0	0	0	1
156	155	2.9196000000000146	1	0	0	0	1
161	156	3.0803999999999991	1	0	0	0	1
162	161	2.9196000000000044	1	0	0	0	1
167	162	3.0803999999999991	1	0	0	0	1
168	167	2.9196000000000146	1	0	0	0	1
173	168	3.0803999999999991	1	0	0	0	1
174	173	2.9196000000000257	1	0	0	0	1
179	174	3.0803999999999991	1	0	0	0	1
180	179	2.9196000000000155	1	0	0	0	1
185	180	3.0803999999999991	1	0	0	0	1
[NumHoles] = 0
[NumBlockLabels] = 62
0	112	2	-1	0	0	0	1	0
0	78	1	-1	0	0	0	1	0
-83.357474260313552	4.3685801126263115	3	-1	2	0	1	-1	0
-92.833933106233715	4.8652202762081203	3	-1	1	0	2	1	0
-82.444192328644618	13.057877259980813	3	-1	2	0	3	-1	0
-91.816825108372399	14.542356457165399	3	-1	1	0	4	1	0
-80.627634573266675	21.604109571538491	3	-1	2	0	5	-1	0
-89.793752760717837	24.060163537594256	3	-1	1	0	6	1	0
-77.927703581086789	29.913642737679808	3	-1	1	0	7	1	0
-86.786881267266082	33.314362431392311	3	-1	1	0	8	1	0
-74.373980361052134	37.895435774154919	3	-1	1	0	9	1	0
-82.829154541327668	42.203562198913495	3	-1	1	0	10	1	0
-70.005400248425843	45.462038486158647	3	-1	1	0	11	1	0
-77.963934265119562	50.630370907320234	3	-1	3	0	12	1	0
-64.869826321105961	52.530549590964839	3	-1	1	0	13	1	0
-72.244524810100685	58.502462676980102	3	-1	3	0	14	1	0
-59.023525001728203	59.02352500172821	3	-1	1	0	15	1	0
-65.733589223123602	65.733589223123616	3	-1	3	0	16	1	0
-52.530549590964831	64.869826321105975	3	-1	3	0	17	1	0
-58.502462676980088	72.244524810100685	3	-1	3	0	18	1	0
-45.462038486158626	70.005400248425843	3	-1	3	0	19	1	0
-50.630370907320213	77.963934265119576	3	-1	3	0	20	1	0
-37.895435774154912	74.373980361052134	3	-1	3	0	21	1	0
-42.203562198913495	82.829154541327682	3	-1	2	0	22	1	0
-29.913642737679794	77.927703581086789	3	-1	3	0	23	1	0
-33.31436243139229	86.786881267266097	3	-1	2	0	24	1	0
-21.604109571538476	80.62763457326669	3	-1	3	0	25	1	0
-24.060163537594242	89.793752760717837	3	-1	2	0	26	1	0
-13.057877259980806	82.444192328644618	3	-1	2	0	27	1	0
-14.542356457165392	91.816825108372399	3	-1	2	0	28	1	0
-4.3685801126263009	83.357474260313552	3	-1	2	0	29	1	0
-4.8652202762081078	92.833933106233729	3	-1	2	0	30	1	0
4.3685801126263009	83.357474260313552	3	-1	2	0	31	1	0
4.8652202762081078	92.833933106233715	3	-1	1	0	32	-1	0
13.057877259980806	82.444192328644618	3	-1	2	0	33	1	0
14.542356457165392	91.816825108372399	3	-1	1	0	34	-1	0
21.60410957153848	80.627634573266675	3	-1	2	0	35	1	0
24.060163537594242	89.793752760717837	3	-1	1	0	36	-1	0
29.913642737679794	77.927703581086789	3	-1	1	0	37	-1	0
33.31436243139229	86.786881267266082	3	-1	1	0	38	-1	0
37.895435774154912	74.373980361052134	3	-1	1	0	39	-1	0
42.203562198913488	82.829154541327682	3	-1	1	0	40	-1	0
45.462038486158626	70.005400248425843	3	-1	1	0	41	-1	0
50.630370907320213	77.963934265119576	3	-1	3	0	42	-1	0
52.530549590964831	64.86982632110599	3	-1	1	0	43	-1	0
58.502462676980088	72.2445248101007	3	-1	3	0	44	-1	0
59.02352500172821	59.023525001728203	3	-1	1	0	45	-1	0
65.733589223123602	65.733589223123602	3	-1	3	0	46	-1	0
64.869826321105975	52.530549590964839	3	-1	3	0	47	-1	0
72.244524810100685	58.502462676980102	3	-1	3	0	48	-1	0
70.005400248425843	45.46203848615864	3	-1	3	0	49	-1	0
77.963934265119562	50.630370907320227	3	-1	3	0	50	-1	0
74.373980361052134	37.895435774154919	3	-1	3	0	51	-1	0
82.829154541327668	42.203562198913495	3	-1	2	0	52	-1	0
77.927703581086789	29.913642737679808	3	-1	3	0	53	-1	0
86.786881267266097	33.314362431392311	3	-1	2	0	54	-1	0
80.62763457326669	21.604109571538494	3	-1	3	0	55	-1	0
89.793752760717837	24.06016353759426	3	-1	2	0	56	-1	0
82.444192328644618	13.057877259980813	3	-1	2	0	57	-1	0
91.816825108372399	14.542356457165399	3	-1	2	0	58	-1	0
83.357474260313552	4.3685801126263124	3	-1	2	0	59	-1	0
92.833933106233729	4.8652202762081203	3	-1	2	0	60	-1	0
